@<TRIPOS>MOLECULE
AlkEthOH_c1142
   19    18     1     0     0
SMALL
USER_CHARGES

@<TRIPOS>ATOM
      1 C1          0.4039   -1.0521   -0.1122 CT        1 <0>       -0.09136
      2 C2         -0.5795   -2.0238    0.5201 CT        1 <0>       -0.07902
      3 C3         -1.9307   -1.9925   -0.1885 CT        1 <0>       -0.08478
      4 C4         -2.9047   -2.9950    0.4140 CT        1 <0>        0.13272
      5 C5         -5.1018   -3.8392    0.2087 CT        1 <0>        0.32901
      6 O1         -5.4999   -3.5449    1.5399 OH        1 <0>       -0.62864
      7 O2         -4.1328   -2.9264   -0.2974 OS        1 <0>       -0.41523
      8 H1          0.0153   -0.0289   -0.0876 HC        1 <0>        0.03418
      9 H2          1.3640   -1.0679    0.4135 HC        1 <0>        0.03418
     10 H3          0.5844   -1.3218   -1.1574 HC        1 <0>        0.03418
     11 H4         -0.1611   -3.0362    0.4794 HC        1 <0>        0.03853
     12 H5         -0.7076   -1.7680    1.5784 HC        1 <0>        0.03853
     13 H6         -2.3650   -0.9865   -0.1342 HC        1 <0>        0.05377
     14 H7         -1.8040   -2.2065   -1.2572 HC        1 <0>        0.05377
     15 H8         -2.5139   -4.0145    0.3363 H1        1 <0>        0.03538
     16 H9         -3.0991   -2.7668    1.4668 H1        1 <0>        0.03538
     17 H10        -4.7471   -4.8742    0.1396 H2        1 <0>        0.03509
     18 H11        -5.9907   -3.7500   -0.4225 H2        1 <0>        0.03509
     19 H12        -6.1564   -4.2135    1.7985 HO        1 <0>        0.40922
@<TRIPOS>BOND
     1    1    2 1
     2    2    3 1
     3    3    4 1
     4    4    7 1
     5    5    6 1
     6    5    7 1
     7    1    8 1
     8    1    9 1
     9    1   10 1
    10    2   11 1
    11    2   12 1
    12    3   13 1
    13    3   14 1
    14    4   15 1
    15    4   16 1
    16    5   17 1
    17    5   18 1
    18    6   19 1
@<TRIPOS>SUBSTRUCTURE
     1 <0>         1 GROUP 0 A     ****
