@<TRIPOS>MOLECULE
AlkEthOH_c93
   27    26     1     0     0
SMALL
USER_CHARGES

@<TRIPOS>ATOM
      1 C1          0.9187    0.1109   -1.6676 CT        1 <0>       -0.08390
      2 C2         -2.2936   -0.4408   -1.6701 CT        1 <0>       -0.13174
      3 C3          2.0322   -0.8706    1.0342 CT        1 <0>       -0.08709
      4 C4         -0.2598   -0.7256    2.0096 CT        1 <0>       -0.08709
      5 C5          0.8696    1.3333    1.2065 CT        1 <0>       -0.08709
      6 C6          0.0021   -0.3559   -0.5194 CT        1 <0>       -0.04300
      7 C7         -1.4118    0.2802   -0.6511 CT        1 <0>        0.14031
      8 C8          0.6678   -0.1696    0.9041 CT        1 <0>       -0.04789
      9 O1         -1.3109    1.6481   -1.0378 OH        1 <0>       -0.59788
     10 H1          1.1044    1.1877   -1.6156 HC        1 <0>        0.03919
     11 H2          1.8889   -0.3936   -1.6507 HC        1 <0>        0.03919
     12 H3          0.4593   -0.0663   -2.6442 HC        1 <0>        0.03919
     13 H4         -1.8406   -0.4527   -2.6662 HC        1 <0>        0.04140
     14 H5         -3.2479    0.0873   -1.7788 HC        1 <0>        0.04140
     15 H6         -2.5059   -1.4681   -1.3592 HC        1 <0>        0.04140
     16 H7          2.7424   -0.5230    0.2780 HC        1 <0>        0.03481
     17 H8          1.9272   -1.9546    0.9041 HC        1 <0>        0.03481
     18 H9          2.4778   -0.7146    2.0212 HC        1 <0>        0.03481
     19 H10        -1.2503   -0.2597    1.9650 HC        1 <0>        0.03481
     20 H11        -0.3859   -1.8101    1.9293 HC        1 <0>        0.03481
     21 H12         0.1511   -0.5315    3.0074 HC        1 <0>        0.03481
     22 H13        -0.0753    1.8821    1.1276 HC        1 <0>        0.03481
     23 H14         1.2543    1.4837    2.2222 HC        1 <0>        0.03481
     24 H15         1.5913    1.7983    0.5285 HC        1 <0>        0.03481
     25 H16        -0.1283   -1.4402   -0.6510 HC        1 <0>        0.04363
     26 H17        -1.9331    0.2470    0.3090 H1        1 <0>        0.03144
     27 H18        -2.2138    2.0021   -1.0395 HO        1 <0>        0.39524
@<TRIPOS>BOND
     1    1    6 1
     2    2    7 1
     3    3    8 1
     4    4    8 1
     5    5    8 1
     6    6    7 1
     7    6    8 1
     8    7    9 1
     9    1   10 1
    10    1   11 1
    11    1   12 1
    12    2   13 1
    13    2   14 1
    14    2   15 1
    15    3   16 1
    16    3   17 1
    17    3   18 1
    18    4   19 1
    19    4   20 1
    20    4   21 1
    21    5   22 1
    22    5   23 1
    23    5   24 1
    24    6   25 1
    25    7   26 1
    26    9   27 1
@<TRIPOS>SUBSTRUCTURE
     1 <0>         1 GROUP 0 A     ****
