@<TRIPOS>MOLECULE
AlkEthOH_c500
   24    23     1     0     0
SMALL
USER_CHARGES

@<TRIPOS>ATOM
      1 C1         -0.8087   -2.4727    4.4028 CT        1 <0>       -0.10538
      2 C2         -2.4709   -0.7644    3.5839 CT        1 <0>       -0.10538
      3 C3         -0.4645   -0.0646    0.9894 CT        1 <0>       -0.10704
      4 C4          1.6273    0.6910    2.1567 CT        1 <0>       -0.10704
      5 C5          1.2036   -1.7604    1.8118 CT        1 <0>       -0.10704
      6 C6         -1.1266   -1.4328    3.3392 CT        1 <0>        0.13834
      7 C7          0.5609   -0.3988    2.0719 CT        1 <0>        0.15248
      8 O1         -0.1082   -0.4451    3.3327 OS        1 <0>       -0.42362
      9 H1         -0.7989   -2.0280    5.4026 HC        1 <0>        0.04082
     10 H2         -1.5527   -3.2763    4.3844 HC        1 <0>        0.04082
     11 H3          0.1644   -2.9412    4.2181 HC        1 <0>        0.04082
     12 H4         -2.5007   -0.2791    4.5641 HC        1 <0>        0.04082
     13 H5         -3.2783   -1.5029    3.5342 HC        1 <0>        0.04082
     14 H6         -2.6836   -0.0138    2.8147 HC        1 <0>        0.04082
     15 H7         -1.2317   -0.8445    0.9253 HC        1 <0>        0.04230
     16 H8         -0.9578    0.8935    1.1830 HC        1 <0>        0.04230
     17 H9          0.0103   -0.0162    0.0027 HC        1 <0>        0.04230
     18 H10         2.3651    0.4554    2.9322 HC        1 <0>        0.04230
     19 H11         1.1816    1.6524    2.4367 HC        1 <0>        0.04230
     20 H12         2.1531    0.8168    1.2047 HC        1 <0>        0.04230
     21 H13         1.9391   -2.0003    2.5882 HC        1 <0>        0.04230
     22 H14         0.4566   -2.5604    1.7845 HC        1 <0>        0.04230
     23 H15         1.7476   -1.7592    0.8603 HC        1 <0>        0.04230
     24 H16        -1.1288   -1.9080    2.3528 H1        1 <0>        0.03906
@<TRIPOS>BOND
     1    1    6 1
     2    2    6 1
     3    3    7 1
     4    4    7 1
     5    5    7 1
     6    6    8 1
     7    7    8 1
     8    1    9 1
     9    1   10 1
    10    1   11 1
    11    2   12 1
    12    2   13 1
    13    2   14 1
    14    3   15 1
    15    3   16 1
    16    3   17 1
    17    4   18 1
    18    4   19 1
    19    4   20 1
    20    5   21 1
    21    5   22 1
    22    5   23 1
    23    6   24 1
@<TRIPOS>SUBSTRUCTURE
     1 <0>         1 GROUP 0 A     ****
