@<TRIPOS>MOLECULE
AlkEthOH_c66
   23    22     1     0     0
SMALL
USER_CHARGES

@<TRIPOS>ATOM
      1 C1          0.6173   -0.5356   -0.7290 CT        1 <0>       -0.11880
      2 C2          4.0687    1.2252   -0.0873 CT        1 <0>       -0.12364
      3 C3          2.3485    1.7731   -1.8184 CT        1 <0>       -0.12364
      4 C4          2.4858   -2.3263    0.8090 CT        1 <0>        0.32365
      5 C5          2.1047   -0.3548   -0.4361 CT        1 <0>        0.15511
      6 C6          2.5832    1.1163   -0.4553 CT        1 <0>        0.15765
      7 O1          3.6078   -2.7642    0.0561 OH        1 <0>       -0.63317
      8 O2          1.8431    1.8724    0.5075 OH        1 <0>       -0.58602
      9 O3          2.3632   -0.9116    0.8555 OS        1 <0>       -0.40017
     10 H1         -0.0080    0.0269   -0.0308 HC        1 <0>        0.04583
     11 H2          0.3297   -1.5917   -0.6915 HC        1 <0>        0.04583
     12 H3          0.3853   -0.1888   -1.7424 HC        1 <0>        0.04583
     13 H4          4.2765    0.7649    0.8850 HC        1 <0>        0.04537
     14 H5          4.3698    2.2751    0.0067 HC        1 <0>        0.04537
     15 H6          4.7041    0.7496   -0.8414 HC        1 <0>        0.04537
     16 H7          1.2966    1.7155   -2.1169 HC        1 <0>        0.04537
     17 H8          2.5880    2.8424   -1.7805 HC        1 <0>        0.04537
     18 H9          2.9620    1.3112   -2.5986 HC        1 <0>        0.04537
     19 H10         1.5701   -2.7962    0.4319 H2        1 <0>        0.03729
     20 H11         2.6338   -2.6659    1.8381 H2        1 <0>        0.03729
     21 H12         2.6878   -0.9363   -1.1604 H1        1 <0>        0.05844
     22 H13         3.6092   -3.7360    0.0805 HO        1 <0>        0.40936
     23 H14         2.1655    2.7831    0.4426 HO        1 <0>        0.39694
@<TRIPOS>BOND
     1    1    5 1
     2    2    6 1
     3    3    6 1
     4    4    7 1
     5    4    9 1
     6    5    6 1
     7    5    9 1
     8    6    8 1
     9    1   10 1
    10    1   11 1
    11    1   12 1
    12    2   13 1
    13    2   14 1
    14    2   15 1
    15    3   16 1
    16    3   17 1
    17    3   18 1
    18    4   19 1
    19    4   20 1
    20    5   21 1
    21    7   22 1
    22    8   23 1
@<TRIPOS>SUBSTRUCTURE
     1 <0>         1 GROUP 0 A     ****
