@<TRIPOS>MOLECULE
AlkEthOH_c224
   23    22     1     0     0
SMALL
USER_CHARGES

@<TRIPOS>ATOM
      1 C1          0.9500   -0.3335    0.4393 CT        1 <0>       -0.12461
      2 C2         -0.0809    0.0233    2.6922 CT        1 <0>       -0.12461
      3 C3          2.0341   -1.3283    2.5217 CT        1 <0>       -0.06752
      4 C4          2.8970   -2.3316    1.7591 CT        1 <0>        0.13431
      5 C5          4.9168   -3.5541    1.8502 CT        1 <0>        0.32257
      6 C6          0.7167   -0.9506    1.8190 CT        1 <0>        0.15021
      7 O1          5.4489   -3.0544    0.6318 OH        1 <0>       -0.62933
      8 O2         -0.0754   -2.1254    1.6340 OH        1 <0>       -0.59969
      9 O3          4.0695   -2.6213    2.5119 OS        1 <0>       -0.46444
     10 H1          1.5191   -1.0068   -0.2104 HC        1 <0>        0.04385
     11 H2         -0.0034   -0.1595   -0.0736 HC        1 <0>        0.04385
     12 H3          1.4816    0.6209    0.5096 HC        1 <0>        0.04385
     13 H4         -0.2658   -0.3887    3.6898 HC        1 <0>        0.04385
     14 H5          0.4511    0.9753    2.8017 HC        1 <0>        0.04385
     15 H6         -1.0464    0.2616    2.2313 HC        1 <0>        0.04385
     16 H7          1.8116   -1.7655    3.5047 HC        1 <0>        0.06018
     17 H8          2.6262   -0.4270    2.7262 HC        1 <0>        0.06018
     18 H9          2.3633   -3.2730    1.5998 H1        1 <0>        0.04320
     19 H10         3.2101   -1.9420    0.7862 H1        1 <0>        0.04320
     20 H11         4.4020   -4.5062    1.6763 H2        1 <0>        0.06131
     21 H12         5.7617   -3.7503    2.5164 H2        1 <0>        0.06131
     22 H13         5.9645   -2.2591    0.8477 HO        1 <0>        0.41222
     23 H14        -0.9029   -1.8342    1.2233 HO        1 <0>        0.39841
@<TRIPOS>BOND
     1    1    6 1
     2    2    6 1
     3    3    4 1
     4    3    6 1
     5    4    9 1
     6    5    7 1
     7    5    9 1
     8    6    8 1
     9    1   10 1
    10    1   11 1
    11    1   12 1
    12    2   13 1
    13    2   14 1
    14    2   15 1
    15    3   16 1
    16    3   17 1
    17    4   18 1
    18    4   19 1
    19    5   20 1
    20    5   21 1
    21    7   22 1
    22    8   23 1
@<TRIPOS>SUBSTRUCTURE
     1 <0>         1 GROUP 0 A     ****
