@<TRIPOS>MOLECULE
AlkEthOH_c104
   19    18     1     0     0
SMALL
USER_CHARGES

@<TRIPOS>ATOM
      1 C1         -0.9553    0.4818   -0.2077 CT        1 <0>       -0.12888
      2 C2         -0.3490    1.5118   -3.9233 CT        1 <0>       -0.11928
      3 C3          1.3697    3.1763   -2.0989 CT        1 <0>        0.11569
      4 C4         -1.2082    0.6003   -1.7062 CT        1 <0>        0.14619
      5 C5         -0.0897    1.3641   -2.4285 CT        1 <0>        0.14672
      6 O1         -2.4504    1.2717   -1.9070 OH        1 <0>       -0.58808
      7 O2          0.0656    2.6662   -1.8674 OS        1 <0>       -0.40841
      8 H1         -0.8584    1.4672    0.2604 HC        1 <0>        0.04676
      9 H2         -0.0508   -0.0987   -0.0023 HC        1 <0>        0.04676
     10 H3         -1.8018   -0.0117    0.2823 HC        1 <0>        0.04676
     11 H4         -1.2912    2.0347   -4.1123 HC        1 <0>        0.04714
     12 H5          0.4621    2.0550   -4.4201 HC        1 <0>        0.04714
     13 H6         -0.3970    0.5255   -4.3979 HC        1 <0>        0.04714
     14 H7          1.4557    4.1724   -1.6578 H1        1 <0>        0.03150
     15 H8          1.5573    3.2251   -3.1745 H1        1 <0>        0.03150
     16 H9          2.0999    2.5100   -1.6336 H1        1 <0>        0.03150
     17 H10        -1.2996   -0.4020   -2.1404 H1        1 <0>        0.02904
     18 H11         0.8600    0.8372   -2.2840 H1        1 <0>        0.03289
     19 H12        -3.1291    0.7293   -1.4768 HO        1 <0>        0.39792
@<TRIPOS>BOND
     1    1    4 1
     2    2    5 1
     3    3    7 1
     4    4    5 1
     5    4    6 1
     6    5    7 1
     7    1    8 1
     8    1    9 1
     9    1   10 1
    10    2   11 1
    11    2   12 1
    12    2   13 1
    13    3   14 1
    14    3   15 1
    15    3   16 1
    16    4   17 1
    17    5   18 1
    18    6   19 1
@<TRIPOS>SUBSTRUCTURE
     1 <0>         1 GROUP 0 A     ****
