@<TRIPOS>MOLECULE
AlkEthOH_c99
   28    27     1     0     0
SMALL
USER_CHARGES

@<TRIPOS>ATOM
      1 C1         -2.5659    1.2754   -1.8624 CT        1 <0>       -0.12498
      2 C2         -0.3490    1.5118   -3.9233 CT        1 <0>       -0.10238
      3 C3          2.3898    2.6566   -2.4400 CT        1 <0>       -0.10814
      4 C4          1.4373    4.2589   -0.7564 CT        1 <0>       -0.10814
      5 C5          1.5717    1.8099   -0.2155 CT        1 <0>       -0.10814
      6 C6         -1.2082    0.6003   -1.7062 CT        1 <0>        0.13035
      7 C7         -0.0897    1.3641   -2.4285 CT        1 <0>        0.14380
      8 C8          1.3643    2.8424   -1.3226 CT        1 <0>        0.15240
      9 O1         -1.2950   -0.7240   -2.2284 OH        1 <0>       -0.60756
     10 O2          0.0656    2.6662   -1.8674 OS        1 <0>       -0.42441
     11 H1         -2.8453    1.3718   -2.9170 HC        1 <0>        0.04610
     12 H2         -2.5711    2.2680   -1.4021 HC        1 <0>        0.04610
     13 H3         -3.3473    0.6706   -1.3893 HC        1 <0>        0.04610
     14 H4         -1.2912    2.0347   -4.1123 HC        1 <0>        0.04505
     15 H5          0.4621    2.0550   -4.4201 HC        1 <0>        0.04505
     16 H6         -0.3970    0.5255   -4.3979 HC        1 <0>        0.04505
     17 H7          2.3406    1.6411   -2.8491 HC        1 <0>        0.04349
     18 H8          2.2302    3.3685   -3.2565 HC        1 <0>        0.04349
     19 H9          3.4096    2.7880   -2.0607 HC        1 <0>        0.04349
     20 H10         0.7032    4.3967    0.0458 HC        1 <0>        0.04349
     21 H11         1.1956    5.0001   -1.5267 HC        1 <0>        0.04349
     22 H12         2.4320    4.4841   -0.3584 HC        1 <0>        0.04349
     23 H13         0.8363    1.9430    0.5861 HC        1 <0>        0.04349
     24 H14         1.4861    0.7871   -0.5968 HC        1 <0>        0.04349
     25 H15         2.5583    1.9275    0.2472 HC        1 <0>        0.04349
     26 H16        -0.9615    0.5206   -0.6412 H1        1 <0>        0.03491
     27 H17         0.8600    0.8372   -2.2840 H1        1 <0>        0.05555
     28 H18        -1.9768   -1.1797   -1.7113 HO        1 <0>        0.40188
@<TRIPOS>BOND
     1    1    6 1
     2    2    7 1
     3    3    8 1
     4    4    8 1
     5    5    8 1
     6    6    7 1
     7    6    9 1
     8    7   10 1
     9    8   10 1
    10    1   11 1
    11    1   12 1
    12    1   13 1
    13    2   14 1
    14    2   15 1
    15    2   16 1
    16    3   17 1
    17    3   18 1
    18    3   19 1
    19    4   20 1
    20    4   21 1
    21    4   22 1
    22    5   23 1
    23    5   24 1
    24    5   25 1
    25    6   26 1
    26    7   27 1
    27    9   28 1
@<TRIPOS>SUBSTRUCTURE
     1 <0>         1 GROUP 0 A     ****
