@<TRIPOS>MOLECULE
AlkEthOH_c887
   26    25     1     0     0
SMALL
USER_CHARGES

@<TRIPOS>ATOM
      1 C1          6.3169   -3.4278    2.4434 CT        1 <0>       -0.12806
      2 C2          0.9500   -0.3335    0.4393 CT        1 <0>       -0.12474
      3 C3         -0.0809    0.0233    2.6922 CT        1 <0>       -0.12474
      4 C4          2.0341   -1.3283    2.5217 CT        1 <0>       -0.06821
      5 C5          2.8970   -2.3316    1.7591 CT        1 <0>        0.13677
      6 C6          4.9218   -3.5568    1.8510 CT        1 <0>        0.33469
      7 C7          0.7167   -0.9506    1.8190 CT        1 <0>        0.15006
      8 O1          4.4629   -4.8983    1.9880 OH        1 <0>       -0.62216
      9 O2         -0.0754   -2.1254    1.6340 OH        1 <0>       -0.59500
     10 O3          4.0695   -2.6213    2.5119 OS        1 <0>       -0.42082
     11 H1          6.3092   -3.6580    3.5135 HC        1 <0>        0.05328
     12 H2          7.0080   -4.1308    1.9648 HC        1 <0>        0.05328
     13 H3          6.7153   -2.4198    2.2920 HC        1 <0>        0.05328
     14 H4          1.5191   -1.0068   -0.2104 HC        1 <0>        0.04279
     15 H5         -0.0034   -0.1595   -0.0736 HC        1 <0>        0.04279
     16 H6          1.4816    0.6209    0.5096 HC        1 <0>        0.04279
     17 H7         -0.2658   -0.3887    3.6898 HC        1 <0>        0.04279
     18 H8          0.4511    0.9753    2.8017 HC        1 <0>        0.04279
     19 H9         -1.0464    0.2616    2.2313 HC        1 <0>        0.04279
     20 H10         1.8116   -1.7655    3.5047 HC        1 <0>        0.06151
     21 H11         2.6262   -0.4270    2.7262 HC        1 <0>        0.06151
     22 H12         2.3633   -3.2730    1.5998 H1        1 <0>        0.04397
     23 H13         3.2101   -1.9420    0.7862 H1        1 <0>        0.04397
     24 H14         4.9657   -3.3201    0.7817 H2        1 <0>        0.02865
     25 H15         5.0795   -5.4809    1.5139 HO        1 <0>        0.40831
     26 H16        -0.9029   -1.8342    1.2233 HO        1 <0>        0.39771
@<TRIPOS>BOND
     1    1    6 1
     2    2    7 1
     3    3    7 1
     4    4    5 1
     5    4    7 1
     6    5   10 1
     7    6    8 1
     8    6   10 1
     9    7    9 1
    10    1   11 1
    11    1   12 1
    12    1   13 1
    13    2   14 1
    14    2   15 1
    15    2   16 1
    16    3   17 1
    17    3   18 1
    18    3   19 1
    19    4   20 1
    20    4   21 1
    21    5   22 1
    22    5   23 1
    23    6   24 1
    24    8   25 1
    25    9   26 1
@<TRIPOS>SUBSTRUCTURE
     1 <0>         1 GROUP 0 A     ****
