@<TRIPOS>MOLECULE
AlkEthOH_c1148
   21    20     1     0     0
SMALL
USER_CHARGES

@<TRIPOS>ATOM
      1 C1         -1.2014   -0.8990    2.8898 CT        1 <0>       -0.09339
      2 C2          4.0742   -0.8735    1.8975 CT        1 <0>       -0.10772
      3 C3          4.6752   -1.8985    4.1201 CT        1 <0>       -0.10772
      4 C4          0.1100   -0.6530    3.6139 CT        1 <0>       -0.08429
      5 C5          1.2749   -1.3494    2.9273 CT        1 <0>        0.13021
      6 C6          3.5918   -1.7167    3.0680 CT        1 <0>        0.13970
      7 O1          2.4629   -1.0899    3.6622 OS        1 <0>       -0.42385
      8 H1         -1.1454   -0.5586    1.8509 HC        1 <0>        0.03473
      9 H2         -1.4375   -1.9677    2.8845 HC        1 <0>        0.03473
     10 H3         -2.0254   -0.3716    3.3806 HC        1 <0>        0.03473
     11 H4          4.4052    0.1151    2.2300 HC        1 <0>        0.04258
     12 H5          4.9081   -1.3692    1.3890 HC        1 <0>        0.04258
     13 H6          3.2826   -0.7454    1.1510 HC        1 <0>        0.04258
     14 H7          5.0206   -0.9343    4.5055 HC        1 <0>        0.04258
     15 H8          5.5320   -2.4332    3.6964 HC        1 <0>        0.04258
     16 H9          4.3121   -2.5015    4.9596 HC        1 <0>        0.04258
     17 H10         0.0333   -1.0004    4.6512 HC        1 <0>        0.05350
     18 H11         0.3074    0.4242    3.6712 HC        1 <0>        0.05350
     19 H12         1.1169   -2.4321    2.8914 H1        1 <0>        0.02345
     20 H13         1.4076   -0.9751    1.9072 H1        1 <0>        0.02345
     21 H14         3.2684   -2.6971    2.7033 H1        1 <0>        0.03349
@<TRIPOS>BOND
     1    1    4 1
     2    2    6 1
     3    3    6 1
     4    4    5 1
     5    5    7 1
     6    6    7 1
     7    1    8 1
     8    1    9 1
     9    1   10 1
    10    2   11 1
    11    2   12 1
    12    2   13 1
    13    3   14 1
    14    3   15 1
    15    3   16 1
    16    4   17 1
    17    4   18 1
    18    5   19 1
    19    5   20 1
    20    6   21 1
@<TRIPOS>SUBSTRUCTURE
     1 <0>         1 GROUP 0 A     ****
