@<TRIPOS>MOLECULE
AlkEthOH_c474
   25    24     1     0     0
SMALL
USER_CHARGES

@<TRIPOS>ATOM
      1 C1          1.0463   -2.2714    0.9388 CT        1 <0>       -0.08906
      2 C2          1.8954   -3.5153   -1.0685 CT        1 <0>       -0.08906
      3 C3          0.1304    1.2465   -2.7653 CT        1 <0>       -0.13083
      4 C4          0.0905    2.2940   -0.4994 CT        1 <0>       -0.13083
      5 C5          1.0255   -1.1748   -1.3393 CT        1 <0>        0.13988
      6 C6          1.7594   -2.1447   -0.4091 CT        1 <0>       -0.06846
      7 C7         -0.0488    0.9800   -1.2690 CT        1 <0>        0.34742
      8 O1         -1.3673    0.4990   -1.0065 OH        1 <0>       -0.62265
      9 O2          0.9647    0.1133   -0.7445 OS        1 <0>       -0.41454
     10 H1          0.0331   -2.6655    0.8054 HC        1 <0>        0.03599
     11 H2          0.9679   -1.3000    1.4389 HC        1 <0>        0.03599
     12 H3          1.5811   -2.9546    1.6067 HC        1 <0>        0.03599
     13 H4          0.9105   -3.9449   -1.2804 HC        1 <0>        0.03599
     14 H5          2.4286   -4.2113   -0.4123 HC        1 <0>        0.03599
     15 H6          2.4464   -3.4500   -2.0130 HC        1 <0>        0.03599
     16 H7          0.0357    0.3214   -3.3444 HC        1 <0>        0.05101
     17 H8         -0.6004    1.9758   -3.1297 HC        1 <0>        0.05101
     18 H9          1.1283    1.6427   -2.9816 HC        1 <0>        0.05101
     19 H10        -0.0351    2.1226    0.5765 HC        1 <0>        0.05101
     20 H11        -0.6737    3.0186   -0.8009 HC        1 <0>        0.05101
     21 H12         1.0820    2.7373   -0.6418 HC        1 <0>        0.05101
     22 H13         1.5548   -1.0824   -2.2934 H1        1 <0>        0.03605
     23 H14         0.0036   -1.5151   -1.5385 H1        1 <0>        0.03605
     24 H15         2.7635   -1.7475   -0.2127 HC        1 <0>        0.05485
     25 H16        -2.0017    1.1755   -1.2967 HO        1 <0>        0.40918
@<TRIPOS>BOND
     1    1    6 1
     2    2    6 1
     3    3    7 1
     4    4    7 1
     5    5    6 1
     6    5    9 1
     7    7    8 1
     8    7    9 1
     9    1   10 1
    10    1   11 1
    11    1   12 1
    12    2   13 1
    13    2   14 1
    14    2   15 1
    15    3   16 1
    16    3   17 1
    17    3   18 1
    18    4   19 1
    19    4   20 1
    20    4   21 1
    21    5   22 1
    22    5   23 1
    23    6   24 1
    24    8   25 1
@<TRIPOS>SUBSTRUCTURE
     1 <0>         1 GROUP 0 A     ****
