@<TRIPOS>MOLECULE
AlkEthOH_c520
   29    28     1     0     0
SMALL
USER_CHARGES

@<TRIPOS>ATOM
      1 C1          0.3843   -3.0451    0.1862 CT        1 <0>       -0.10733
      2 C2          0.7756   -2.7838   -2.2898 CT        1 <0>       -0.10733
      3 C3          0.5802    0.9335    2.7376 CT        1 <0>       -0.12940
      4 C4         -1.4768    0.9914   -0.9642 CT        1 <0>       -0.11385
      5 C5          0.7894    0.7225   -1.9357 CT        1 <0>       -0.11385
      6 C6          0.6179   -2.0687   -0.9565 CT        1 <0>        0.15101
      7 C7         -0.3323    0.5908    1.5696 CT        1 <0>        0.34348
      8 C8         -0.1580    0.2164   -0.8377 CT        1 <0>        0.35622
      9 O1         -0.9989   -0.6215    1.8983 OH        1 <0>       -0.60849
     10 O2         -0.4795   -1.1692   -1.0349 OS        1 <0>       -0.42727
     11 O3          0.4961    0.4894    0.4118 OS        1 <0>       -0.44381
     12 H1         -0.5072   -3.6551    0.0114 HC        1 <0>        0.04100
     13 H2          1.2467   -3.7105    0.3011 HC        1 <0>        0.04100
     14 H3          0.2662   -2.5167    1.1387 HC        1 <0>        0.04100
     15 H4         -0.1066   -3.3876   -2.5236 HC        1 <0>        0.04100
     16 H5          1.6529   -3.4392   -2.2693 HC        1 <0>        0.04100
     17 H6          0.9364   -2.0686   -3.1040 HC        1 <0>        0.04100
     18 H7          1.3352    0.1551    2.8876 HC        1 <0>        0.05194
     19 H8          0.0051    1.0618    3.6602 HC        1 <0>        0.05194
     20 H9          1.1117    1.8733    2.5492 HC        1 <0>        0.05194
     21 H10        -2.2017    0.6774   -0.2059 HC        1 <0>        0.05259
     22 H11        -1.9336    0.8396   -1.9484 HC        1 <0>        0.05259
     23 H12        -1.3088    2.0707   -0.8741 HC        1 <0>        0.05259
     24 H13         1.7539    0.2037   -1.8968 HC        1 <0>        0.05259
     25 H14         0.3671    0.5654   -2.9339 HC        1 <0>        0.05259
     26 H15         1.0111    1.7875   -1.8031 HC        1 <0>        0.05259
     27 H16         1.5147   -1.4748   -0.7521 H1        1 <0>        0.05103
     28 H17        -1.0658    1.3962    1.4618 H2        1 <0>        0.02814
     29 H18        -1.5039   -0.4585    2.7130 HO        1 <0>        0.40409
@<TRIPOS>BOND
     1    1    6 1
     2    2    6 1
     3    3    7 1
     4    4    8 1
     5    5    8 1
     6    6   10 1
     7    7    9 1
     8    7   11 1
     9    8   10 1
    10    8   11 1
    11    1   12 1
    12    1   13 1
    13    1   14 1
    14    2   15 1
    15    2   16 1
    16    2   17 1
    17    3   18 1
    18    3   19 1
    19    3   20 1
    20    4   21 1
    21    4   22 1
    22    4   23 1
    23    5   24 1
    24    5   25 1
    25    5   26 1
    26    6   27 1
    27    7   28 1
    28    9   29 1
@<TRIPOS>SUBSTRUCTURE
     1 <0>         1 GROUP 0 A     ****
