@<TRIPOS>MOLECULE
AlkEthOH_c1271
   19    18     1     0     0
SMALL
USER_CHARGES

@<TRIPOS>ATOM
      1 C1         -0.5179   -2.3865    5.8204 CT        1 <0>       -0.09511
      2 C2         -0.6062    0.9264    0.6648 CT        1 <0>       -0.13221
      3 C3         -0.9866   -2.1705    4.3972 CT        1 <0>        0.12942
      4 C4         -0.8331   -0.7088    2.5635 CT        1 <0>        0.13559
      5 C5         -0.1831    0.5832    2.0850 CT        1 <0>        0.13867
      6 O1         -0.5895    1.6384    2.9552 OH        1 <0>       -0.58482
      7 O2         -0.4246   -0.9632    3.9033 OS        1 <0>       -0.40997
      8 H1          0.5719   -2.4653    5.8645 HC        1 <0>        0.04524
      9 H2         -0.8389   -1.5596    6.4623 HC        1 <0>        0.04524
     10 H3         -0.9553   -3.3003    6.2361 HC        1 <0>        0.04524
     11 H4         -1.6967    1.0050    0.5978 HC        1 <0>        0.04374
     12 H5         -0.1694    1.8751    0.3381 HC        1 <0>        0.04374
     13 H6         -0.3043    0.1399   -0.0355 HC        1 <0>        0.04374
     14 H7         -2.0773   -2.0925    4.3601 H1        1 <0>        0.02211
     15 H8         -0.6644   -2.9971    3.7571 H1        1 <0>        0.02211
     16 H9         -1.9253   -0.6300    2.5545 H1        1 <0>        0.03297
     17 H10        -0.5228   -1.5580    1.9467 H1        1 <0>        0.03297
     18 H11         0.9076    0.5046    2.1521 H1        1 <0>        0.04465
     19 H12        -0.1450    2.4403    2.6406 HO        1 <0>        0.39668
@<TRIPOS>BOND
     1    1    3 1
     2    2    5 1
     3    3    7 1
     4    4    5 1
     5    4    7 1
     6    5    6 1
     7    1    8 1
     8    1    9 1
     9    1   10 1
    10    2   11 1
    11    2   12 1
    12    2   13 1
    13    3   14 1
    14    3   15 1
    15    4   16 1
    16    4   17 1
    17    5   18 1
    18    6   19 1
@<TRIPOS>SUBSTRUCTURE
     1 <0>         1 GROUP 0 A     ****
