@<TRIPOS>MOLECULE
AlkEthOH_c956
   25    24     1     0     0
SMALL
USER_CHARGES

@<TRIPOS>ATOM
      1 C1          2.3392    0.3643   -0.3662 CT        1 <0>       -0.08699
      2 C2         -2.0250   -2.5258   -0.8720 CT        1 <0>       -0.10671
      3 C3         -0.4656   -3.1055    1.0211 CT        1 <0>       -0.10671
      4 C4         -1.5106    0.8961   -0.2128 CT        1 <0>       -0.14907
      5 C5          0.9554    0.9538   -0.6268 CT        1 <0>       -0.09065
      6 C6         -1.1397   -1.9869    0.2414 CT        1 <0>        0.14789
      7 C7         -0.1759    0.2209    0.1232 CT        1 <0>        0.34716
      8 O1          0.0921    0.3494    1.5208 OH        1 <0>       -0.62180
      9 O2         -0.1451   -1.1428   -0.3195 OS        1 <0>       -0.41247
     10 H1          2.3555   -0.6920   -0.6538 HC        1 <0>        0.04216
     11 H2          3.1088    0.8812   -0.9475 HC        1 <0>        0.04216
     12 H3          2.6063    0.4262    0.6933 HC        1 <0>        0.04216
     13 H4         -1.4520   -3.1412   -1.5722 HC        1 <0>        0.04189
     14 H5         -2.8353   -3.1329   -0.4543 HC        1 <0>        0.04189
     15 H6         -2.4988   -1.7099   -1.4290 HC        1 <0>        0.04189
     16 H7          0.1445   -3.7348    0.3660 HC        1 <0>        0.04189
     17 H8         -1.2164   -3.7347    1.5110 HC        1 <0>        0.04189
     18 H9          0.1736   -2.7030    1.8148 HC        1 <0>        0.04189
     19 H10        -2.3453    0.4066    0.3001 HC        1 <0>        0.04914
     20 H11        -1.5184    1.9404    0.1184 HC        1 <0>        0.04914
     21 H12        -1.7160    0.8574   -1.2876 HC        1 <0>        0.04914
     22 H13         0.9775    2.0091   -0.3277 HC        1 <0>        0.04649
     23 H14         0.7693    0.9154   -1.7073 HC        1 <0>        0.04649
     24 H15        -1.7409   -1.3769    0.9234 H1        1 <0>        0.05365
     25 H16         0.1363    1.2957    1.7378 HO        1 <0>        0.40748
@<TRIPOS>BOND
     1    1    5 1
     2    2    6 1
     3    3    6 1
     4    4    7 1
     5    5    7 1
     6    6    9 1
     7    7    8 1
     8    7    9 1
     9    1   10 1
    10    1   11 1
    11    1   12 1
    12    2   13 1
    13    2   14 1
    14    2   15 1
    15    3   16 1
    16    3   17 1
    17    3   18 1
    18    4   19 1
    19    4   20 1
    20    4   21 1
    21    5   22 1
    22    5   23 1
    23    6   24 1
    24    8   25 1
@<TRIPOS>SUBSTRUCTURE
     1 <0>         1 GROUP 0 A     ****
