@<TRIPOS>MOLECULE
AlkEthOH_c140
   17    16     1     0     0
SMALL
USER_CHARGES

@<TRIPOS>ATOM
      1 C1         -0.6138   -0.1246    0.8990 CT        1 <0>       -0.08490
      2 C2          1.1851    0.8592    2.3421 CT        1 <0>       -0.08490
      3 C3          1.1078   -1.6156    1.9474 CT        1 <0>       -0.08490
      4 C4         -0.6372   -0.5188    3.3750 CT        1 <0>       -0.08490
      5 C5          0.2605   -0.3499    2.1409 CT        1 <0>       -0.06012
      6 H1         -1.2862   -0.9729    0.7289 HC        1 <0>        0.03331
      7 H2         -1.2316    0.7738    1.0075 HC        1 <0>        0.03331
      8 H3          0.0000   -0.0004   -0.0001 HC        1 <0>        0.03331
      9 H4          1.8231    0.7275    3.2232 HC        1 <0>        0.03331
     10 H5          0.6080    1.7800    2.4832 HC        1 <0>        0.03331
     11 H6          1.8396    1.0056    1.4756 HC        1 <0>        0.03331
     12 H7          1.7442   -1.8033    2.8195 HC        1 <0>        0.03331
     13 H8          0.4743   -2.4976    1.8010 HC        1 <0>        0.03331
     14 H9          1.7605   -1.5250    1.0719 HC        1 <0>        0.03331
     15 H10        -0.0405   -0.6817    4.2795 HC        1 <0>        0.03331
     16 H11        -1.3101   -1.3760    3.2607 HC        1 <0>        0.03331
     17 H12        -1.2556    0.3709    3.5395 HC        1 <0>        0.03331
@<TRIPOS>BOND
     1    1    5 1
     2    2    5 1
     3    3    5 1
     4    4    5 1
     5    1    6 1
     6    1    7 1
     7    1    8 1
     8    2    9 1
     9    2   10 1
    10    2   11 1
    11    3   12 1
    12    3   13 1
    13    3   14 1
    14    4   15 1
    15    4   16 1
    16    4   17 1
@<TRIPOS>SUBSTRUCTURE
     1 <0>         1 GROUP 0 A     ****
