@<TRIPOS>MOLECULE
AlkEthOH_c349
   25    24     1     0     0
SMALL
USER_CHARGES

@<TRIPOS>ATOM
      1 C1          2.2145   -0.0379    0.3096 CT        1 <0>       -0.08777
      2 C2          0.5162    1.7758    0.6240 CT        1 <0>       -0.08777
      3 C3         -0.7607   -3.3282    1.1677 CT        1 <0>       -0.10658
      4 C4         -2.0127   -1.8302    2.7615 CT        1 <0>       -0.10658
      5 C5          0.8773    0.5269   -0.1829 CT        1 <0>       -0.08547
      6 C6         -1.3855   -1.9579    1.3816 CT        1 <0>        0.14183
      7 C7         -0.2545   -0.5189   -0.1271 CT        1 <0>        0.33745
      8 O1         -1.4577    0.0616   -0.6225 OH        1 <0>       -0.62889
      9 O2         -0.3864   -0.9591    1.2275 OS        1 <0>       -0.41388
     10 H1          2.1374   -0.3507    1.3567 HC        1 <0>        0.04158
     11 H2          2.5251   -0.9090   -0.2768 HC        1 <0>        0.04158
     12 H3          3.0083    0.7136    0.2484 HC        1 <0>        0.04158
     13 H4          0.3650    1.5432    1.6833 HC        1 <0>        0.04158
     14 H5          1.3131    2.5241    0.5553 HC        1 <0>        0.04158
     15 H6         -0.4026    2.2325    0.2416 HC        1 <0>        0.04158
     16 H7          0.0071   -3.5362    1.9190 HC        1 <0>        0.04174
     17 H8         -1.5265   -4.1092    1.2241 HC        1 <0>        0.04174
     18 H9         -0.3074   -3.4041    0.1731 HC        1 <0>        0.04174
     19 H10        -1.2748   -2.0027    3.5509 HC        1 <0>        0.04174
     20 H11        -2.8263   -2.5541    2.8788 HC        1 <0>        0.04174
     21 H12        -2.4526   -0.8370    2.9041 HC        1 <0>        0.04174
     22 H13         1.0159    0.8214   -1.2314 HC        1 <0>        0.03976
     23 H14        -2.1477   -1.7803    0.6159 H1        1 <0>        0.06103
     24 H15         0.0188   -1.3697   -0.7646 H2        1 <0>        0.02758
     25 H16        -1.2898    0.3357   -1.5400 HO        1 <0>        0.40937
@<TRIPOS>BOND
     1    1    5 1
     2    2    5 1
     3    3    6 1
     4    4    6 1
     5    5    7 1
     6    6    9 1
     7    7    8 1
     8    7    9 1
     9    1   10 1
    10    1   11 1
    11    1   12 1
    12    2   13 1
    13    2   14 1
    14    2   15 1
    15    3   16 1
    16    3   17 1
    17    3   18 1
    18    4   19 1
    19    4   20 1
    20    4   21 1
    21    5   22 1
    22    6   23 1
    23    7   24 1
    24    8   25 1
@<TRIPOS>SUBSTRUCTURE
     1 <0>         1 GROUP 0 A     ****
