@<TRIPOS>MOLECULE
AlkEthOH_c854
   28    27     1     0     0
SMALL
USER_CHARGES

@<TRIPOS>ATOM
      1 C1         -0.1449    1.7821    2.8963 CT        1 <0>       -0.11994
      2 C2          0.5283   -3.1000   -1.2193 CT        1 <0>       -0.12150
      3 C3         -1.4086   -1.5532   -0.9615 CT        1 <0>       -0.12150
      4 C4          2.1592    1.1203   -0.3336 CT        1 <0>       -0.10452
      5 C5         -0.3344    1.7483    1.3870 CT        1 <0>        0.35424
      6 C6          0.0336   -1.8254   -0.5318 CT        1 <0>        0.36982
      7 C7          0.7433    0.5302   -0.4176 CT        1 <0>        0.55183
      8 O1         -1.7179    1.8949    1.0790 OH        1 <0>       -0.60938
      9 O2          0.0822   -2.0931    0.8704 OH        1 <0>       -0.60480
     10 O3         -0.0172    1.2996   -1.3531 OH        1 <0>       -0.66404
     11 O4          0.1910    0.5117    0.9071 OS        1 <0>       -0.45788
     12 O5          0.9588   -0.8032   -0.9218 OS        1 <0>       -0.48091
     13 H1         -0.6689    0.9453    3.3722 HC        1 <0>        0.05345
     14 H2         -0.5466    2.7070    3.3217 HC        1 <0>        0.05345
     15 H3          0.9142    1.6926    3.1577 HC        1 <0>        0.05345
     16 H4          1.5612   -3.3302   -0.9365 HC        1 <0>        0.05763
     17 H5          0.4645   -3.0193   -2.3100 HC        1 <0>        0.05763
     18 H6         -0.0870   -3.9585   -0.9242 HC        1 <0>        0.05763
     19 H7         -1.7953   -0.6447   -0.4862 HC        1 <0>        0.05763
     20 H8         -1.4768   -1.3809   -2.0408 HC        1 <0>        0.05763
     21 H9         -2.0653   -2.3931   -0.7127 HC        1 <0>        0.05763
     22 H10         2.7741    0.5554    0.3759 HC        1 <0>        0.05993
     23 H11         2.1521    2.1661   -0.0118 HC        1 <0>        0.05993
     24 H12         2.6552    1.0832   -1.3104 HC        1 <0>        0.05993
     25 H13         0.2001    2.5948    0.9461 H2        1 <0>        0.04980
     26 H14        -2.0207    2.7474    1.4342 HO        1 <0>        0.40922
     27 H15        -0.4986   -2.8513    1.0510 HO        1 <0>        0.42766
     28 H16         0.4108    1.2605   -2.2242 HO        1 <0>        0.43598
@<TRIPOS>BOND
     1    1    5 1
     2    2    6 1
     3    3    6 1
     4    4    7 1
     5    5    8 1
     6    5   11 1
     7    6    9 1
     8    6   12 1
     9    7   10 1
    10    7   11 1
    11    7   12 1
    12    1   13 1
    13    1   14 1
    14    1   15 1
    15    2   16 1
    16    2   17 1
    17    2   18 1
    18    3   19 1
    19    3   20 1
    20    3   21 1
    21    4   22 1
    22    4   23 1
    23    4   24 1
    24    5   25 1
    25    8   26 1
    26    9   27 1
    27   10   28 1
@<TRIPOS>SUBSTRUCTURE
     1 <0>         1 GROUP 0 A     ****
