@<TRIPOS>MOLECULE
AlkEthOH_c1270
   21    20     1     0     0
SMALL
USER_CHARGES

@<TRIPOS>ATOM
      1 C1          3.6747    2.1719    3.2516 CT        1 <0>       -0.09667
      2 C2          1.0495   -0.3816   -0.2534 CT        1 <0>       -0.08996
      3 C3          1.1039    1.1686   -2.2261 CT        1 <0>       -0.08996
      4 C4          2.8986    2.6484    2.0423 CT        1 <0>        0.12974
      5 C5          1.9991    1.9493   -0.0132 CT        1 <0>        0.13286
      6 C6          1.8182    0.7470   -0.9439 CT        1 <0>       -0.06820
      7 O1          2.7244    1.5597    1.1457 OS        1 <0>       -0.42273
      8 H1          3.1364    1.3745    3.7714 HC        1 <0>        0.04462
      9 H2          4.6603    1.7982    2.9550 HC        1 <0>        0.04462
     10 H3          3.8446    2.9975    3.9508 HC        1 <0>        0.04462
     11 H4          0.0462   -0.0483    0.0327 HC        1 <0>        0.03634
     12 H5          1.5657   -0.7163    0.6529 HC        1 <0>        0.03634
     13 H6          0.9340   -1.2452   -0.9165 HC        1 <0>        0.03634
     14 H7          0.1076    1.5654   -2.0043 HC        1 <0>        0.03634
     15 H8          0.9803    0.3150   -2.9009 HC        1 <0>        0.03634
     16 H9          1.6660    1.9434   -2.7588 HC        1 <0>        0.03634
     17 H10         3.4423    3.4458    1.5271 H1        1 <0>        0.02279
     18 H11         1.9139    3.0207    2.3403 H1        1 <0>        0.02279
     19 H12         2.5635    2.7424   -0.5149 H1        1 <0>        0.02388
     20 H13         1.0314    2.3549    0.3013 H1        1 <0>        0.02388
     21 H14         2.8097    0.3560   -1.2057 HC        1 <0>        0.05968
@<TRIPOS>BOND
     1    1    4 1
     2    2    6 1
     3    3    6 1
     4    4    7 1
     5    5    6 1
     6    5    7 1
     7    1    8 1
     8    1    9 1
     9    1   10 1
    10    2   11 1
    11    2   12 1
    12    2   13 1
    13    3   14 1
    14    3   15 1
    15    3   16 1
    16    4   17 1
    17    4   18 1
    18    5   19 1
    19    5   20 1
    20    6   21 1
@<TRIPOS>SUBSTRUCTURE
     1 <0>         1 GROUP 0 A     ****
