@<TRIPOS>MOLECULE
AlkEthOH_c595
   28    27     1     0     0
SMALL
USER_CHARGES

@<TRIPOS>ATOM
      1 C1          1.0320   -2.9776    1.5894 CT        1 <0>       -0.13085
      2 C2         -1.3455    2.3201   -1.1985 CT        1 <0>       -0.08545
      3 C3          1.0991    1.7712   -1.1246 CT        1 <0>       -0.08545
      4 C4         -0.4878    0.2584   -2.3137 CT        1 <0>       -0.08545
      5 C5          0.4811   -0.8043    0.4297 CT        1 <0>       -0.10696
      6 C6         -0.0002   -1.8680    1.4311 CT        1 <0>        0.14069
      7 C7         -0.5374    0.3362    0.2172 CT        1 <0>        0.15662
      8 C8         -0.3208    1.1761   -1.0818 CT        1 <0>       -0.08285
      9 O1         -0.2169   -1.2678    2.7041 OH        1 <0>       -0.59512
     10 O2         -0.4933    1.2184    1.3422 OH        1 <0>       -0.58920
     11 H1          1.9920   -2.5737    1.9294 HC        1 <0>        0.04275
     12 H2          1.1893   -3.5125    0.6480 HC        1 <0>        0.04275
     13 H3          0.7075   -3.6983    2.3476 HC        1 <0>        0.04275
     14 H4         -2.3737    1.9437   -1.1726 HC        1 <0>        0.03573
     15 H5         -1.2189    2.8656   -2.1411 HC        1 <0>        0.03573
     16 H6         -1.2321    3.0471   -0.3877 HC        1 <0>        0.03573
     17 H7          1.8585    0.9856   -1.0440 HC        1 <0>        0.03573
     18 H8          1.2673    2.4899   -0.3167 HC        1 <0>        0.03573
     19 H9          1.2740    2.3053   -2.0659 HC        1 <0>        0.03573
     20 H10         0.2157   -0.5811   -2.2930 HC        1 <0>        0.03573
     21 H11        -0.3209    0.8143   -3.2432 HC        1 <0>        0.03573
     22 H12        -1.4978   -0.1653   -2.3582 HC        1 <0>        0.03573
     23 H13         1.4183   -0.3781    0.8085 HC        1 <0>        0.05703
     24 H14         0.6891   -1.3020   -0.5222 HC        1 <0>        0.05703
     25 H15        -0.9495   -2.2970    1.0909 H1        1 <0>        0.03231
     26 H16        -1.5479   -0.0915    0.1857 H1        1 <0>        0.06514
     27 H17        -0.5406   -1.9697    3.2903 HO        1 <0>        0.39947
     28 H18         0.4119    1.5599    1.3837 HO        1 <0>        0.40322
@<TRIPOS>BOND
     1    1    6 1
     2    2    8 1
     3    3    8 1
     4    4    8 1
     5    5    6 1
     6    5    7 1
     7    6    9 1
     8    7    8 1
     9    7   10 1
    10    1   11 1
    11    1   12 1
    12    1   13 1
    13    2   14 1
    14    2   15 1
    15    2   16 1
    16    3   17 1
    17    3   18 1
    18    3   19 1
    19    4   20 1
    20    4   21 1
    21    4   22 1
    22    5   23 1
    23    5   24 1
    24    6   25 1
    25    7   26 1
    26    9   27 1
    27   10   28 1
@<TRIPOS>SUBSTRUCTURE
     1 <0>         1 GROUP 0 A     ****
