@<TRIPOS>MOLECULE
AlkEthOH_c848
   24    23     1     0     0
SMALL
USER_CHARGES

@<TRIPOS>ATOM
      1 C1          2.5540    0.3746   -1.3364 CT        1 <0>       -0.12118
      2 C2         -1.4897   -1.7912   -0.2488 CT        1 <0>       -0.11371
      3 C3         -1.1365    0.3977    0.9626 CT        1 <0>       -0.14223
      4 C4         -1.8540    1.2203   -0.1014 CT        1 <0>        0.13615
      5 C5          1.6308    0.1995   -0.1387 CT        1 <0>        0.33847
      6 C6         -0.4639   -0.8882    0.4423 CT        1 <0>        0.35921
      7 O1         -2.4446    2.3537    0.5234 OH        1 <0>       -0.60123
      8 O2          2.3648   -0.3535    0.9491 OH        1 <0>       -0.61623
      9 O3          0.0289   -1.6502    1.5484 OH        1 <0>       -0.61413
     10 O4          0.5445   -0.6330   -0.5443 OS        1 <0>       -0.45212
     11 H1          2.9429   -0.5903   -1.6762 HC        1 <0>        0.05309
     12 H2          3.3902    1.0365   -1.0901 HC        1 <0>        0.05309
     13 H3          2.0168    0.8282   -2.1771 HC        1 <0>        0.05309
     14 H4         -1.0363   -2.7126   -0.6278 HC        1 <0>        0.05238
     15 H5         -1.9917   -1.2703   -1.0713 HC        1 <0>        0.05238
     16 H6         -2.2694   -2.0924    0.4616 HC        1 <0>        0.05238
     17 H7         -0.3943    1.0386    1.4561 HC        1 <0>        0.07456
     18 H8         -1.8377    0.1489    1.7710 HC        1 <0>        0.07456
     19 H9         -2.6505    0.6447   -0.5808 H1        1 <0>        0.02660
     20 H10        -1.1579    1.5754   -0.8667 H1        1 <0>        0.02660
     21 H11         1.2685    1.1858    0.1639 H2        1 <0>        0.07174
     22 H12        -2.8922    2.8560   -0.1761 HO        1 <0>        0.40246
     23 H13         3.0874    0.2570    1.1719 HO        1 <0>        0.42517
     24 H14        -0.7218   -1.8607    2.1287 HO        1 <0>        0.40890
@<TRIPOS>BOND
     1    1    5 1
     2    2    6 1
     3    3    4 1
     4    3    6 1
     5    4    7 1
     6    5    8 1
     7    5   10 1
     8    6    9 1
     9    6   10 1
    10    1   11 1
    11    1   12 1
    12    1   13 1
    13    2   14 1
    14    2   15 1
    15    2   16 1
    16    3   17 1
    17    3   18 1
    18    4   19 1
    19    4   20 1
    20    5   21 1
    21    7   22 1
    22    8   23 1
    23    9   24 1
@<TRIPOS>SUBSTRUCTURE
     1 <0>         1 GROUP 0 A     ****
