@<TRIPOS>MOLECULE
AlkEthOH_c1187
   28    27     1     0     0
SMALL
USER_CHARGES

@<TRIPOS>ATOM
      1 C1          0.4797   -4.8954   -2.1188 CT        1 <0>       -0.09614
      2 C2          1.8449    1.3095   -0.6476 CT        1 <0>       -0.13265
      3 C3          3.3099   -1.4008   -3.7175 CT        1 <0>       -0.10132
      4 C4          3.9924   -2.7060   -1.6948 CT        1 <0>       -0.10132
      5 C5          2.0673   -1.0299   -1.5592 CT        1 <0>       -0.09818
      6 C6          1.4139   -3.7942   -1.6644 CT        1 <0>        0.12797
      7 C7          2.6796    0.3802   -1.5208 CT        1 <0>        0.14431
      8 C8          2.8129   -2.0681   -2.4299 CT        1 <0>        0.16284
      9 O1          3.9933    0.3480   -0.9741 OH        1 <0>       -0.60255
     10 O2          1.9228   -3.1204   -2.8044 OS        1 <0>       -0.42837
     11 H1         -0.3606   -4.4850   -2.6856 HC        1 <0>        0.04256
     12 H2          1.0111   -5.6175   -2.7473 HC        1 <0>        0.04256
     13 H3          0.0888   -5.4490   -1.2587 HC        1 <0>        0.04256
     14 H4          1.7551    0.9241    0.3725 HC        1 <0>        0.04312
     15 H5          2.2848    2.3122   -0.6079 HC        1 <0>        0.04312
     16 H6          0.8391    1.4247   -1.0662 HC        1 <0>        0.04312
     17 H7          2.4899   -0.9323   -4.2714 HC        1 <0>        0.04577
     18 H8          3.7980   -2.1310   -4.3732 HC        1 <0>        0.04577
     19 H9          4.0623   -0.6352   -3.4959 HC        1 <0>        0.04577
     20 H10         3.6568   -3.1892   -0.7696 HC        1 <0>        0.04577
     21 H11         4.4933   -3.4580   -2.3127 HC        1 <0>        0.04577
     22 H12         4.7275   -1.9547   -1.3873 HC        1 <0>        0.04577
     23 H13         2.0438   -1.4103   -0.5285 HC        1 <0>        0.05585
     24 H14         1.0276   -0.9555   -1.9033 HC        1 <0>        0.05585
     25 H15         2.2520   -4.2114   -1.0982 H1        1 <0>        0.02385
     26 H16         0.8812   -3.0732   -1.0373 H1        1 <0>        0.02385
     27 H17         2.7375    0.8105   -2.5256 H1        1 <0>        0.03603
     28 H18         4.3263    1.2590   -0.9967 HO        1 <0>        0.39832
@<TRIPOS>BOND
     1    1    6 1
     2    2    7 1
     3    3    8 1
     4    4    8 1
     5    5    7 1
     6    5    8 1
     7    6   10 1
     8    7    9 1
     9    8   10 1
    10    1   11 1
    11    1   12 1
    12    1   13 1
    13    2   14 1
    14    2   15 1
    15    2   16 1
    16    3   17 1
    17    3   18 1
    18    3   19 1
    19    4   20 1
    20    4   21 1
    21    4   22 1
    22    5   23 1
    23    5   24 1
    24    6   25 1
    25    6   26 1
    26    7   27 1
    27    9   28 1
@<TRIPOS>SUBSTRUCTURE
     1 <0>         1 GROUP 0 A     ****
