@<TRIPOS>MOLECULE
AlkEthOH_c1302
    3     2     1     0     0
SMALL
USER_CHARGES

@<TRIPOS>ATOM
      1 O1          0.0000    0.0000    0.0000 OW        1 <0>       -0.78512
      2 H1          0.9500    0.0000    0.0000 HW        1 <0>        0.39256
      3 H2         -0.2379    0.0000    0.9197 HW        1 <0>        0.39256
@<TRIPOS>BOND
     1    1    2 1
     2    1    3 1
@<TRIPOS>SUBSTRUCTURE
     1 <0>         1 GROUP 0 A     ****
