@<TRIPOS>MOLECULE
AlkEthOH_c1210
   23    22     1     0     0
SMALL
USER_CHARGES

@<TRIPOS>ATOM
      1 C1          2.4459   -2.2641   -1.0611 CT        1 <0>       -0.09642
      2 C2          0.3969    0.9248    1.2185 CT        1 <0>       -0.11681
      3 C3         -3.4680   -1.1524   -0.8382 CT        1 <0>        0.11999
      4 C4          1.8414   -0.8873   -0.8859 CT        1 <0>        0.14234
      5 C5         -1.6058   -0.1369    0.1735 CT        1 <0>        0.10486
      6 C6         -0.1267    0.2159   -0.0329 CT        1 <0>        0.35210
      7 O1         -0.0154    1.1237   -1.1304 OH        1 <0>       -0.61881
      8 O2         -2.0941   -0.8226   -0.9765 OS        1 <0>       -0.42382
      9 O3          0.5706   -1.0157   -0.2648 OS        1 <0>       -0.44689
     10 H1          2.5782   -2.7581   -0.0945 HC        1 <0>        0.04232
     11 H2          1.8062   -2.8890   -1.6929 HC        1 <0>        0.04232
     12 H3          3.4185   -2.1978   -1.5599 HC        1 <0>        0.04232
     13 H4          1.4528    1.1946    1.1117 HC        1 <0>        0.05260
     14 H5          0.2751    0.2967    2.1080 HC        1 <0>        0.05260
     15 H6         -0.1636    1.8449    1.4168 HC        1 <0>        0.05260
     16 H7         -3.8100   -1.6756   -1.7345 H1        1 <0>        0.03598
     17 H8         -4.0501   -0.2389   -0.6923 H1        1 <0>        0.03598
     18 H9         -3.5916   -1.8034    0.0305 H1        1 <0>        0.03598
     19 H10         1.7118   -0.3988   -1.8562 H1        1 <0>        0.03313
     20 H11         2.4814   -0.2645   -0.2537 H1        1 <0>        0.03313
     21 H12        -1.7363   -0.7984    1.0363 H1        1 <0>        0.04739
     22 H13        -2.2131    0.7649    0.3036 H1        1 <0>        0.04739
     23 H14        -0.5506    1.9090   -0.9261 HO        1 <0>        0.42972
@<TRIPOS>BOND
     1    1    4 1
     2    2    6 1
     3    3    8 1
     4    4    9 1
     5    5    6 1
     6    5    8 1
     7    6    7 1
     8    6    9 1
     9    1   10 1
    10    1   11 1
    11    1   12 1
    12    2   13 1
    13    2   14 1
    14    2   15 1
    15    3   16 1
    16    3   17 1
    17    3   18 1
    18    4   19 1
    19    4   20 1
    20    5   21 1
    21    5   22 1
    22    7   23 1
@<TRIPOS>SUBSTRUCTURE
     1 <0>         1 GROUP 0 A     ****
