@<TRIPOS>MOLECULE
AlkEthOH_c472
   18    17     1     0     0
SMALL
USER_CHARGES

@<TRIPOS>ATOM
      1 C1          0.9983   -0.3578   -0.2742 CT        1 <0>       -0.09032
      2 C2          1.1578    1.1798   -2.2511 CT        1 <0>       -0.09032
      3 C3          2.8478    2.6363    2.0678 CT        1 <0>        0.11673
      4 C4          1.9991    1.9493   -0.0132 CT        1 <0>        0.12903
      5 C5          1.8182    0.7470   -0.9439 CT        1 <0>       -0.06742
      6 O1          2.6754    1.5475    1.1709 OS        1 <0>       -0.42011
      7 H1         -0.0051    0.0026   -0.0230 HC        1 <0>        0.03637
      8 H2          1.4754   -0.7007    0.6503 HC        1 <0>        0.03637
      9 H3          0.8826   -1.2218   -0.9368 HC        1 <0>        0.03637
     10 H4          0.1652    1.6031   -2.0643 HC        1 <0>        0.03637
     11 H5          1.0346    0.3259   -2.9257 HC        1 <0>        0.03637
     12 H6          1.7569    1.9371   -2.7683 HC        1 <0>        0.03637
     13 H7          3.3695    2.2918    2.9641 H1        1 <0>        0.03145
     14 H8          1.8710    3.0462    2.3367 H1        1 <0>        0.03145
     15 H9          3.4430    3.4101    1.5773 H1        1 <0>        0.03145
     16 H10         2.6000    2.7249   -0.4995 H1        1 <0>        0.02494
     17 H11         1.0323    2.3812    0.2672 H1        1 <0>        0.02494
     18 H12         2.8075    0.3294   -1.1709 HC        1 <0>        0.05996
@<TRIPOS>BOND
     1    1    5 1
     2    2    5 1
     3    3    6 1
     4    4    5 1
     5    4    6 1
     6    1    7 1
     7    1    8 1
     8    1    9 1
     9    2   10 1
    10    2   11 1
    11    2   12 1
    12    3   13 1
    13    3   14 1
    14    3   15 1
    15    4   16 1
    16    4   17 1
    17    5   18 1
@<TRIPOS>SUBSTRUCTURE
     1 <0>         1 GROUP 0 A     ****
