@<TRIPOS>MOLECULE
AlkEthOH_c50
   28    27     1     0     0
SMALL
USER_CHARGES

@<TRIPOS>ATOM
      1 C1          1.9453    0.1982    1.5386 CT        1 <0>       -0.12452
      2 C2          1.2561   -0.1617   -1.4441 CT        1 <0>       -0.08931
      3 C3         -0.5943   -1.6922   -0.7945 CT        1 <0>       -0.08931
      4 C4         -1.5459    1.1567   -1.4649 CT        1 <0>       -0.12479
      5 C5         -1.7895    0.6435    0.9597 CT        1 <0>       -0.12479
      6 C6          0.9396   -0.8170    1.0004 CT        1 <0>        0.15357
      7 C7          0.2004   -0.4373   -0.3392 CT        1 <0>       -0.02007
      8 C8         -0.7693    0.8104   -0.1799 CT        1 <0>        0.15906
      9 O1          1.6459   -2.0529    0.8240 OH        1 <0>       -0.61208
     10 O2          0.0198    1.9704    0.1241 OH        1 <0>       -0.60245
     11 H1          2.7189    0.4305    0.8007 HC        1 <0>        0.04725
     12 H2          1.4680    1.1253    1.8622 HC        1 <0>        0.04725
     13 H3          2.4709   -0.2157    2.4070 HC        1 <0>        0.04725
     14 H4          1.8692    0.7138   -1.2069 HC        1 <0>        0.04238
     15 H5          0.7834    0.0452   -2.4107 HC        1 <0>        0.04238
     16 H6          1.9338   -1.0087   -1.5859 HC        1 <0>        0.04238
     17 H7         -1.3692   -1.9639   -0.0686 HC        1 <0>        0.04238
     18 H8         -1.0932   -1.5269   -1.7544 HC        1 <0>        0.04238
     19 H9          0.0505   -2.5713   -0.8929 HC        1 <0>        0.04238
     20 H10        -0.8569    1.2857   -2.3090 HC        1 <0>        0.04302
     21 H11        -2.1198    2.0826   -1.3681 HC        1 <0>        0.04302
     22 H12        -2.2207    0.3482   -1.7616 HC        1 <0>        0.04302
     23 H13        -1.2817    0.3951    1.8998 HC        1 <0>        0.04302
     24 H14        -2.4745   -0.1892    0.7738 HC        1 <0>        0.04302
     25 H15        -2.3738    1.5524    1.1276 HC        1 <0>        0.04302
     26 H16         0.1918   -1.0109    1.7781 H1        1 <0>        0.02624
     27 H17         1.9805   -2.2963    1.6982 HO        1 <0>        0.39787
     28 H18        -0.6089    2.6942    0.2496 HO        1 <0>        0.39643
@<TRIPOS>BOND
     1    1    6 1
     2    2    7 1
     3    3    7 1
     4    4    8 1
     5    5    8 1
     6    6    7 1
     7    6    9 1
     8    7    8 1
     9    8   10 1
    10    1   11 1
    11    1   12 1
    12    1   13 1
    13    2   14 1
    14    2   15 1
    15    2   16 1
    16    3   17 1
    17    3   18 1
    18    3   19 1
    19    4   20 1
    20    4   21 1
    21    4   22 1
    22    5   23 1
    23    5   24 1
    24    5   25 1
    25    6   26 1
    26    9   27 1
    27   10   28 1
@<TRIPOS>SUBSTRUCTURE
     1 <0>         1 GROUP 0 A     ****
