@<TRIPOS>MOLECULE
AlkEthOH_c350
   23    22     1     0     0
SMALL
USER_CHARGES

@<TRIPOS>ATOM
      1 C1         -2.3202   -0.0669   -0.5248 CT        1 <0>       -0.08687
      2 C2         -1.1037    2.1026   -0.8188 CT        1 <0>       -0.08687
      3 C3          1.6930   -0.5960    2.4464 CT        1 <0>       -0.12577
      4 C4         -1.1380    0.6211   -1.2102 CT        1 <0>       -0.08507
      5 C5          1.5958   -0.7325    0.9357 CT        1 <0>        0.34246
      6 C6          0.1860   -0.0997   -0.8864 CT        1 <0>        0.34618
      7 O1          1.5813   -2.1232    0.6323 OH        1 <0>       -0.63471
      8 O2          1.2337    0.5552   -1.5985 OH        1 <0>       -0.63244
      9 O3          0.3990   -0.0729    0.5260 OS        1 <0>       -0.41007
     10 H1         -2.2199   -0.0526    0.5657 HC        1 <0>        0.04074
     11 H2         -3.2604    0.4325   -0.7820 HC        1 <0>        0.04074
     12 H3         -2.3998   -1.1111   -0.8449 HC        1 <0>        0.04074
     13 H4         -0.9508    2.2324    0.2577 HC        1 <0>        0.04074
     14 H5         -0.3010    2.6313   -1.3424 HC        1 <0>        0.04074
     15 H6         -2.0475    2.5918   -1.0833 HC        1 <0>        0.04074
     16 H7          0.8270   -1.0515    2.9372 HC        1 <0>        0.05254
     17 H8          1.7641    0.4556    2.7417 HC        1 <0>        0.05254
     18 H9          2.5882   -1.1036    2.8236 HC        1 <0>        0.05254
     19 H10        -1.2936    0.5756   -2.2960 HC        1 <0>        0.03932
     20 H11         2.4765   -0.2670    0.4786 H2        1 <0>        0.05582
     21 H12         0.1169   -1.1350   -1.2425 H2        1 <0>        0.05262
     22 H13         2.4100   -2.5017    0.9712 HO        1 <0>        0.41185
     23 H14         1.0226    0.4930   -2.5453 HO        1 <0>        0.41149
@<TRIPOS>BOND
     1    1    4 1
     2    2    4 1
     3    3    5 1
     4    4    6 1
     5    5    7 1
     6    5    9 1
     7    6    8 1
     8    6    9 1
     9    1   10 1
    10    1   11 1
    11    1   12 1
    12    2   13 1
    13    2   14 1
    14    2   15 1
    15    3   16 1
    16    3   17 1
    17    3   18 1
    18    4   19 1
    19    5   20 1
    20    6   21 1
    21    7   22 1
    22    8   23 1
@<TRIPOS>SUBSTRUCTURE
     1 <0>         1 GROUP 0 A     ****
