@<TRIPOS>MOLECULE
AlkEthOH_c968
   20    19     1     0     0
SMALL
USER_CHARGES

@<TRIPOS>ATOM
      1 C1          0.3901   -0.9757   -0.3684 CT        1 <0>       -0.09181
      2 C2         -1.2993   -4.9745   -3.1039 CT        1 <0>       -0.09181
      3 C3          0.5423   -3.9826   -0.8792 CT        1 <0>       -0.09009
      4 C4         -0.7741   -1.8070   -0.8892 CT        1 <0>       -0.07729
      5 C5         -1.6015   -3.7656   -2.2290 CT        1 <0>       -0.07729
      6 C6         -0.3423   -3.0436   -1.7051 CT        1 <0>       -0.06411
      7 H1          1.0451   -1.5739    0.2727 HC        1 <0>        0.03266
      8 H2          0.9872   -0.6019   -1.2067 HC        1 <0>        0.03266
      9 H3          0.0443   -0.1076    0.1996 HC        1 <0>        0.03266
     10 H4         -0.6693   -4.6766   -3.9484 HC        1 <0>        0.03266
     11 H5         -2.2124   -5.4133   -3.5158 HC        1 <0>        0.03266
     12 H6         -0.7654   -5.7453   -2.5392 HC        1 <0>        0.03266
     13 H7          0.0075   -4.3578   -0.0004 HC        1 <0>        0.03363
     14 H8          1.4493   -3.4772   -0.5348 HC        1 <0>        0.03363
     15 H9          0.8720   -4.8428   -1.4692 HC        1 <0>        0.03363
     16 H10        -1.3926   -1.1583   -1.5220 HC        1 <0>        0.03737
     17 H11        -1.4026   -2.1143   -0.0443 HC        1 <0>        0.03737
     18 H12        -2.2324   -4.0792   -1.3884 HC        1 <0>        0.03737
     19 H13        -2.1967   -3.0617   -2.8239 HC        1 <0>        0.03737
     20 H14         0.2398   -2.6982   -2.5696 HC        1 <0>        0.04607
@<TRIPOS>BOND
     1    1    4 1
     2    2    5 1
     3    3    6 1
     4    4    6 1
     5    5    6 1
     6    1    7 1
     7    1    8 1
     8    1    9 1
     9    2   10 1
    10    2   11 1
    11    2   12 1
    12    3   13 1
    13    3   14 1
    14    3   15 1
    15    4   16 1
    16    4   17 1
    17    5   18 1
    18    5   19 1
    19    6   20 1
@<TRIPOS>SUBSTRUCTURE
     1 <0>         1 GROUP 0 A     ****
