@<TRIPOS>MOLECULE
AlkEthOH_c1297
   17    16     1     0     0
SMALL
USER_CHARGES

@<TRIPOS>ATOM
      1 C1          0.3459    2.4470    0.4734 CT        1 <0>        0.11838
      2 C2         -0.8936    0.4506    0.4416 CT        1 <0>        0.12142
      3 C3         -2.1461   -0.1936   -0.1209 CT        1 <0>        0.13258
      4 C4         -4.5008   -0.0080   -0.1741 CT        1 <0>        0.32256
      5 O1         -4.7646   -1.3110    0.3260 OH        1 <0>       -0.62751
      6 O2         -0.8015    1.7855   -0.0410 OS        1 <0>       -0.42296
      7 O3         -3.2827    0.5410    0.3172 OS        1 <0>       -0.45490
      8 H1          0.3849    3.4669    0.0832 H1        1 <0>        0.03298
      9 H2          1.2451    1.8990    0.1809 H1        1 <0>        0.03298
     10 H3          0.2792    2.4786    1.5634 H1        1 <0>        0.03298
     11 H4          0.0040   -0.0891    0.1246 H1        1 <0>        0.03957
     12 H5         -0.9377    0.4835    1.5341 H1        1 <0>        0.03957
     13 H6         -2.2509   -1.2251    0.2298 H1        1 <0>        0.04772
     14 H7         -2.1275   -0.1762   -1.2145 H1        1 <0>        0.04772
     15 H8         -4.5224   -0.0116   -1.2701 H2        1 <0>        0.06334
     16 H9         -5.3098    0.6417    0.1719 H2        1 <0>        0.06334
     17 H10        -5.6081   -1.6020   -0.0599 HO        1 <0>        0.41023
@<TRIPOS>BOND
     1    1    6 1
     2    2    3 1
     3    2    6 1
     4    3    7 1
     5    4    5 1
     6    4    7 1
     7    1    8 1
     8    1    9 1
     9    1   10 1
    10    2   11 1
    11    2   12 1
    12    3   13 1
    13    3   14 1
    14    4   15 1
    15    4   16 1
    16    5   17 1
@<TRIPOS>SUBSTRUCTURE
     1 <0>         1 GROUP 0 A     ****
