@<TRIPOS>MOLECULE
AlkEthOH_c1193
   22    21     1     0     0
SMALL
USER_CHARGES

@<TRIPOS>ATOM
      1 C1          2.7372   -1.0343   -3.9080 CT        1 <0>       -0.09742
      2 C2          0.8744   -0.5011    0.4304 CT        1 <0>       -0.10901
      3 C3          2.2795    1.3868   -0.3616 CT        1 <0>       -0.10901
      4 C4          3.3638   -2.0499    0.5105 CT        1 <0>        0.12278
      5 C5          3.0675   -0.4320   -2.5590 CT        1 <0>        0.13412
      6 C6          2.1510   -0.1426   -0.3425 CT        1 <0>        0.34101
      7 O1          3.3175   -0.6412    0.3318 OS        1 <0>       -0.45122
      8 O2          1.9818   -0.6610   -1.6715 OS        1 <0>       -0.44908
      9 H1          2.5760   -2.1127   -3.8249 HC        1 <0>        0.04297
     10 H2          1.8364   -0.5734   -4.3264 HC        1 <0>        0.04297
     11 H3          3.5483   -0.8522   -4.6208 HC        1 <0>        0.04297
     12 H4          0.7263   -1.5849    0.4791 HC        1 <0>        0.05266
     13 H5          0.9039   -0.0964    1.4483 HC        1 <0>        0.05266
     14 H6         -0.0117   -0.0653   -0.0449 HC        1 <0>        0.05266
     15 H7          3.1764    1.7069   -0.9019 HC        1 <0>        0.05266
     16 H8          1.3990    1.8500   -0.8209 HC        1 <0>        0.05266
     17 H9          2.3411    1.7915    0.6548 HC        1 <0>        0.05266
     18 H10         4.2858   -2.3219    1.0301 H1        1 <0>        0.03532
     19 H11         3.3229   -2.5433   -0.4639 H1        1 <0>        0.03532
     20 H12         2.5050   -2.3606    1.1103 H1        1 <0>        0.03532
     21 H13         3.2275    0.6466   -2.6491 H1        1 <0>        0.03350
     22 H14         3.9672   -0.8942   -2.1420 H1        1 <0>        0.03350
@<TRIPOS>BOND
     1    1    5 1
     2    2    6 1
     3    3    6 1
     4    4    7 1
     5    5    8 1
     6    6    7 1
     7    6    8 1
     8    1    9 1
     9    1   10 1
    10    1   11 1
    11    2   12 1
    12    2   13 1
    13    2   14 1
    14    3   15 1
    15    3   16 1
    16    3   17 1
    17    4   18 1
    18    4   19 1
    19    4   20 1
    20    5   21 1
    21    5   22 1
@<TRIPOS>SUBSTRUCTURE
     1 <0>         1 GROUP 0 A     ****
