@<TRIPOS>MOLECULE
AlkEthOH_c709
   30    29     1     0     0
SMALL
USER_CHARGES

@<TRIPOS>ATOM
      1 C1          3.8737    1.0117    1.9008 CT        1 <0>       -0.13052
      2 C2         -1.8843   -1.8632   -2.1755 CT        1 <0>       -0.08640
      3 C3         -1.8968    0.6115   -1.8331 CT        1 <0>       -0.08640
      4 C4         -2.4097   -0.9085    0.0824 CT        1 <0>       -0.08640
      5 C5          0.4055    0.3137    0.2012 CT        1 <0>       -0.07627
      6 C6          1.8998    0.1824    0.5096 CT        1 <0>       -0.07099
      7 C7         -0.0356   -0.7325   -0.8313 CT        1 <0>       -0.06752
      8 C8          2.3982    1.1777    1.5617 CT        1 <0>        0.13843
      9 C9         -1.5481   -0.7406   -1.1800 CT        1 <0>       -0.05300
     10 O1          2.1973    2.4913    1.0393 OH        1 <0>       -0.60163
     11 H1          4.5076    1.0946    1.0139 HC        1 <0>        0.04245
     12 H2          4.0536    0.0315    2.3562 HC        1 <0>        0.04245
     13 H3          4.1929    1.7608    2.6338 HC        1 <0>        0.04245
     14 H4         -1.6517   -2.8472   -1.7521 HC        1 <0>        0.03355
     15 H5         -2.9491   -1.8563   -2.4338 HC        1 <0>        0.03355
     16 H6         -1.3113   -1.7688   -3.1035 HC        1 <0>        0.03355
     17 H7         -1.6735    1.4460   -1.1587 HC        1 <0>        0.03355
     18 H8         -2.9608    0.6644   -2.0899 HC        1 <0>        0.03355
     19 H9         -1.3248    0.7675   -2.7549 HC        1 <0>        0.03355
     20 H10        -2.1934   -0.1215    0.8141 HC        1 <0>        0.03355
     21 H11        -3.4791   -0.8512   -0.1451 HC        1 <0>        0.03355
     22 H12        -2.2184   -1.8729    0.5659 HC        1 <0>        0.03355
     23 H13         0.2078    1.3226   -0.1759 HC        1 <0>        0.04950
     24 H14        -0.1685    0.1853    1.1236 HC        1 <0>        0.04950
     25 H15         2.4787    0.3307   -0.4117 HC        1 <0>        0.04666
     26 H16         2.1267   -0.8415    0.8346 HC        1 <0>        0.04666
     27 H17         0.5401   -0.5748   -1.7535 HC        1 <0>        0.03674
     28 H18         0.2492   -1.7268   -0.4612 HC        1 <0>        0.03674
     29 H19         1.7945    1.0890    2.4717 H1        1 <0>        0.02877
     30 H20         2.4717    3.1073    1.7351 HO        1 <0>        0.39683
@<TRIPOS>BOND
     1    1    8 1
     2    2    9 1
     3    3    9 1
     4    4    9 1
     5    5    6 1
     6    5    7 1
     7    6    8 1
     8    7    9 1
     9    8   10 1
    10    1   11 1
    11    1   12 1
    12    1   13 1
    13    2   14 1
    14    2   15 1
    15    2   16 1
    16    3   17 1
    17    3   18 1
    18    3   19 1
    19    4   20 1
    20    4   21 1
    21    4   22 1
    22    5   23 1
    23    5   24 1
    24    6   25 1
    25    6   26 1
    26    7   27 1
    27    7   28 1
    28    8   29 1
    29   10   30 1
@<TRIPOS>SUBSTRUCTURE
     1 <0>         1 GROUP 0 A     ****
