@<TRIPOS>MOLECULE
AlkEthOH_c1212
   20    19     1     0     0
SMALL
USER_CHARGES

@<TRIPOS>ATOM
      1 C1          0.2406    0.6109    3.3431 CT        1 <0>       -0.09850
      2 C2          1.3325   -0.8319   -0.6670 CT        1 <0>       -0.11665
      3 C3         -2.2893   -0.2455   -0.8104 CT        1 <0>        0.13077
      4 C4          0.5852    0.7923    1.8802 CT        1 <0>        0.14572
      5 C5          0.0470   -0.0730   -0.3097 CT        1 <0>        0.53026
      6 O1          0.1415    1.2686   -0.8003 OH        1 <0>       -0.64666
      7 O2         -0.9914   -0.7917   -1.0081 OS        1 <0>       -0.44964
      8 O3         -0.1742   -0.1271    1.1086 OS        1 <0>       -0.43597
      9 H1         -0.8217    0.8007    3.5202 HC        1 <0>        0.04534
     10 H2          0.4778   -0.4061    3.6723 HC        1 <0>        0.04534
     11 H3          0.8297    1.2925    3.9656 HC        1 <0>        0.04534
     12 H4          1.3105   -1.8672   -0.3124 HC        1 <0>        0.06030
     13 H5          2.2055   -0.3532   -0.2081 HC        1 <0>        0.06030
     14 H6          1.4886   -0.8462   -1.7512 HC        1 <0>        0.06030
     15 H7         -3.0224   -0.8361   -1.3652 H1        1 <0>        0.04109
     16 H8         -2.3054    0.7917   -1.1546 H1        1 <0>        0.04109
     17 H9         -2.5299   -0.2775    0.2549 H1        1 <0>        0.04109
     18 H10         1.6489    0.6011    1.7099 H1        1 <0>        0.03723
     19 H11         0.3468    1.8086    1.5527 H1        1 <0>        0.03723
     20 H12         0.2538    1.2481   -1.7650 HO        1 <0>        0.42602
@<TRIPOS>BOND
     1    1    4 1
     2    2    5 1
     3    3    7 1
     4    4    8 1
     5    5    6 1
     6    5    7 1
     7    5    8 1
     8    1    9 1
     9    1   10 1
    10    1   11 1
    11    2   12 1
    12    2   13 1
    13    2   14 1
    14    3   15 1
    15    3   16 1
    16    3   17 1
    17    4   18 1
    18    4   19 1
    19    6   20 1
@<TRIPOS>SUBSTRUCTURE
     1 <0>         1 GROUP 0 A     ****
