@<TRIPOS>MOLECULE
AlkEthOH_c1140
   22    21     1     0     0
SMALL
USER_CHARGES

@<TRIPOS>ATOM
      1 C1          0.4086   -1.0630   -0.1228 CT        1 <0>       -0.09105
      2 C2         -6.4877   -3.3494   -0.2203 CT        1 <0>       -0.12468
      3 C3         -0.5745   -2.0349    0.5099 CT        1 <0>       -0.08049
      4 C4         -1.9307   -1.9925   -0.1885 CT        1 <0>       -0.08523
      5 C5         -2.9047   -2.9950    0.4140 CT        1 <0>        0.13894
      6 C6         -5.1125   -3.8296    0.2180 CT        1 <0>        0.32971
      7 O1         -4.8976   -5.1600   -0.2435 OH        1 <0>       -0.62458
      8 O2         -4.1377   -2.9159   -0.2877 OS        1 <0>       -0.45689
      9 H1          0.0248   -0.0384   -0.0880 HC        1 <0>        0.03407
     10 H2          1.3724   -1.0868    0.3957 HC        1 <0>        0.03407
     11 H3          0.5802   -1.3260   -1.1712 HC        1 <0>        0.03407
     12 H4         -6.5639   -3.3280   -1.3121 HC        1 <0>        0.05423
     13 H5         -7.2692   -4.0242    0.1468 HC        1 <0>        0.05423
     14 H6         -6.6999   -2.3523    0.1778 HC        1 <0>        0.05423
     15 H7         -0.1609   -3.0488    0.4588 HC        1 <0>        0.03825
     16 H8         -0.6936   -1.7861    1.5708 HC        1 <0>        0.03825
     17 H9         -2.3601   -0.9850   -0.1238 HC        1 <0>        0.05250
     18 H10        -1.8129   -2.1993   -1.2596 HC        1 <0>        0.05250
     19 H11        -2.5190   -4.0157    0.3261 H1        1 <0>        0.03314
     20 H12        -3.0903   -2.7735    1.4699 H1        1 <0>        0.03314
     21 H13        -5.0708   -3.8389    1.3132 H2        1 <0>        0.07161
     22 H14        -5.5853   -5.7299    0.1395 HO        1 <0>        0.40998
@<TRIPOS>BOND
     1    1    3 1
     2    2    6 1
     3    3    4 1
     4    4    5 1
     5    5    8 1
     6    6    7 1
     7    6    8 1
     8    1    9 1
     9    1   10 1
    10    1   11 1
    11    2   12 1
    12    2   13 1
    13    2   14 1
    14    3   15 1
    15    3   16 1
    16    4   17 1
    17    4   18 1
    18    5   19 1
    19    5   20 1
    20    6   21 1
    21    7   22 1
@<TRIPOS>SUBSTRUCTURE
     1 <0>         1 GROUP 0 A     ****
