@<TRIPOS>MOLECULE
AlkEthOH_c1098
   30    29     1     0     0
SMALL
USER_CHARGES

@<TRIPOS>ATOM
      1 C1          2.5264    0.8433   -3.4965 CT        1 <0>       -0.09153
      2 C2         -2.2309    0.0871    1.6878 CT        1 <0>       -0.08776
      3 C3         -0.5129   -1.0522    3.0915 CT        1 <0>       -0.08776
      4 C4         -1.3150   -2.1379    0.9906 CT        1 <0>       -0.08776
      5 C5          1.1811    0.7384   -2.7951 CT        1 <0>       -0.07900
      6 C6          1.3482    0.3766   -1.3162 CT        1 <0>       -0.10957
      7 C7          0.2066   -0.0921    0.8935 CT        1 <0>       -0.09763
      8 C8         -0.0027    0.2341   -0.5966 CT        1 <0>        0.13755
      9 C9         -0.9686   -0.7878    1.6409 CT        1 <0>       -0.05020
     10 O1         -0.7299    1.4504   -0.7390 OH        1 <0>       -0.59663
     11 H1          3.1494    1.6000   -3.0097 HC        1 <0>        0.03278
     12 H2          3.0620   -0.1109   -3.4626 HC        1 <0>        0.03278
     13 H3          2.4010    1.1302   -4.5454 HC        1 <0>        0.03278
     14 H4         -2.5987    0.3063    0.6795 HC        1 <0>        0.03553
     15 H5         -3.0379   -0.3917    2.2508 HC        1 <0>        0.03553
     16 H6         -2.0274    1.0449    2.1810 HC        1 <0>        0.03553
     17 H7          0.3887   -1.6749    3.1189 HC        1 <0>        0.03553
     18 H8         -0.2836   -0.1155    3.6119 HC        1 <0>        0.03553
     19 H9         -1.2918   -1.5708    3.6621 HC        1 <0>        0.03553
     20 H10        -0.4435   -2.7981    0.9348 HC        1 <0>        0.03553
     21 H11        -2.0976   -2.6588    1.5533 HC        1 <0>        0.03553
     22 H12        -1.6796   -1.9992   -0.0339 HC        1 <0>        0.03553
     23 H13         0.5732   -0.0234   -3.2969 HC        1 <0>        0.04547
     24 H14         0.6531    1.6934   -2.8950 HC        1 <0>        0.04547
     25 H15         1.9437    1.1593   -0.8293 HC        1 <0>        0.04218
     26 H16         1.9087   -0.5625   -1.2342 HC        1 <0>        0.04218
     27 H17         0.4435    0.8413    1.4230 HC        1 <0>        0.04251
     28 H18         1.0928   -0.7349    0.9843 HC        1 <0>        0.04251
     29 H19        -0.5791   -0.5577   -1.0840 H1        1 <0>        0.07782
     30 H20        -0.1886    2.1460   -0.3339 HO        1 <0>        0.39404
@<TRIPOS>BOND
     1    1    5 1
     2    2    9 1
     3    3    9 1
     4    4    9 1
     5    5    6 1
     6    6    8 1
     7    7    8 1
     8    7    9 1
     9    8   10 1
    10    1   11 1
    11    1   12 1
    12    1   13 1
    13    2   14 1
    14    2   15 1
    15    2   16 1
    16    3   17 1
    17    3   18 1
    18    3   19 1
    19    4   20 1
    20    4   21 1
    21    4   22 1
    22    5   23 1
    23    5   24 1
    24    6   25 1
    25    6   26 1
    26    7   27 1
    27    7   28 1
    28    8   29 1
    29   10   30 1
@<TRIPOS>SUBSTRUCTURE
     1 <0>         1 GROUP 0 A     ****
