@<TRIPOS>MOLECULE
AlkEthOH_c1117
   22    21     1     0     0
SMALL
USER_CHARGES

@<TRIPOS>ATOM
      1 C1          0.5364   -2.3073    1.7058 CT        1 <0>       -0.09269
      2 C2         -2.6082    0.8929   -2.7356 CT        1 <0>       -0.09741
      3 C3          0.3039   -1.4006    0.5074 CT        1 <0>       -0.07649
      4 C4          0.3458    0.0751    0.9070 CT        1 <0>       -0.10730
      5 C5         -1.2272    1.2118   -2.2036 CT        1 <0>        0.13233
      6 C6          0.1510    1.0116   -0.2879 CT        1 <0>        0.33319
      7 O1          0.2504    2.3468    0.2013 OH        1 <0>       -0.62289
      8 O2         -1.1286    0.7474   -0.8643 OS        1 <0>       -0.41266
      9 H1          1.4989   -2.0914    2.1804 HC        1 <0>        0.03390
     10 H2         -0.2525   -2.1788    2.4537 HC        1 <0>        0.03390
     11 H3          0.5400   -3.3560    1.3925 HC        1 <0>        0.03390
     12 H4         -2.7907   -0.1852   -2.7258 HC        1 <0>        0.04470
     13 H5         -3.3775    1.3873   -2.1334 HC        1 <0>        0.04470
     14 H6         -2.7212    1.2610   -3.7608 HC        1 <0>        0.04470
     15 H7         -0.6660   -1.6451    0.0596 HC        1 <0>        0.04833
     16 H8          1.0712   -1.6017   -0.2491 HC        1 <0>        0.04833
     17 H9         -0.4375    0.2694    1.6514 HC        1 <0>        0.05400
     18 H10         1.3002    0.3050    1.3972 HC        1 <0>        0.05400
     19 H11        -1.0511    2.2916   -2.2161 H1        1 <0>        0.03239
     20 H12        -0.4599    0.7165   -2.8059 H1        1 <0>        0.03239
     21 H13         0.9479    0.8372   -1.0219 H2        1 <0>        0.02977
     22 H14         1.1349    2.4449    0.5928 HO        1 <0>        0.40891
@<TRIPOS>BOND
     1    1    3 1
     2    2    5 1
     3    3    4 1
     4    4    6 1
     5    5    8 1
     6    6    7 1
     7    6    8 1
     8    1    9 1
     9    1   10 1
    10    1   11 1
    11    2   12 1
    12    2   13 1
    13    2   14 1
    14    3   15 1
    15    3   16 1
    16    4   17 1
    17    4   18 1
    18    5   19 1
    19    5   20 1
    20    6   21 1
    21    7   22 1
@<TRIPOS>SUBSTRUCTURE
     1 <0>         1 GROUP 0 A     ****
