@<TRIPOS>MOLECULE
AlkEthOH_c1038
   27    26     1     0     0
SMALL
USER_CHARGES

@<TRIPOS>ATOM
      1 C1          0.4042   -0.5581    0.6343 CT        1 <0>       -0.09112
      2 C2          4.3842    1.4410    0.5133 CT        1 <0>       -0.08882
      3 C3          3.4968    3.0645    2.1910 CT        1 <0>       -0.08882
      4 C4          3.9478    0.0528    5.1458 CT        1 <0>        0.11650
      5 C5          1.8653   -0.2736    0.9534 CT        1 <0>       -0.07917
      6 C6          2.0480    1.1513    1.4878 CT        1 <0>       -0.06840
      7 C7          4.1533    0.7448    2.9094 CT        1 <0>        0.13342
      8 C8          3.5154    1.5771    1.7763 CT        1 <0>       -0.04757
      9 O1          3.3881    0.8402    4.1037 OS        1 <0>       -0.41868
     10 H1          0.0177    0.1534   -0.1023 HC        1 <0>        0.03254
     11 H2          0.2794   -1.5696    0.2346 HC        1 <0>        0.03254
     12 H3         -0.2046   -0.4736    1.5400 HC        1 <0>        0.03254
     13 H4          4.4373    0.4036    0.1673 HC        1 <0>        0.03695
     14 H5          5.4119    1.7706    0.7054 HC        1 <0>        0.03695
     15 H6          3.9886    2.0502   -0.3071 HC        1 <0>        0.03695
     16 H7          2.8885    3.2159    3.0899 HC        1 <0>        0.03695
     17 H8          4.5050    3.4345    2.4074 HC        1 <0>        0.03695
     18 H9          3.0758    3.6917    1.3971 HC        1 <0>        0.03695
     19 H10         3.3357    0.1498    6.0458 H1        1 <0>        0.03144
     20 H11         4.9683    0.3873    5.3485 H1        1 <0>        0.03144
     21 H12         3.9651   -0.9933    4.8308 H1        1 <0>        0.03144
     22 H13         2.2083   -1.0062    1.6910 HC        1 <0>        0.03675
     23 H14         2.4553   -0.4209    0.0432 HC        1 <0>        0.03675
     24 H15         1.4520    1.2582    2.4039 HC        1 <0>        0.04710
     25 H16         1.6118    1.8527    0.7633 HC        1 <0>        0.04710
     26 H17         5.1665    1.1020    3.1269 H1        1 <0>        0.02566
     27 H18         4.2281   -0.3122    2.6338 H1        1 <0>        0.02566
@<TRIPOS>BOND
     1    1    5 1
     2    2    8 1
     3    3    8 1
     4    4    9 1
     5    5    6 1
     6    6    8 1
     7    7    8 1
     8    7    9 1
     9    1   10 1
    10    1   11 1
    11    1   12 1
    12    2   13 1
    13    2   14 1
    14    2   15 1
    15    3   16 1
    16    3   17 1
    17    3   18 1
    18    4   19 1
    19    4   20 1
    20    4   21 1
    21    5   22 1
    22    5   23 1
    23    6   24 1
    24    6   25 1
    25    7   26 1
    26    7   27 1
@<TRIPOS>SUBSTRUCTURE
     1 <0>         1 GROUP 0 A     ****
