@<TRIPOS>MOLECULE
AlkEthOH_c978
   15    14     1     0     0
SMALL
USER_CHARGES

@<TRIPOS>ATOM
      1 C1          0.9784   -0.0326   -0.2360 CT        1 <0>       -0.08993
      2 C2          1.0608    0.9421   -3.9925 CT        1 <0>       -0.13077
      3 C3          1.4098    0.6794   -1.5114 CT        1 <0>       -0.07250
      4 C4          0.6395    0.1877   -2.7386 CT        1 <0>        0.13888
      5 O1         -0.7550    0.3897   -2.5267 OH        1 <0>       -0.60086
      6 H1         -0.0930    0.1019   -0.0565 HC        1 <0>        0.03761
      7 H2          1.5239    0.3435    0.6351 HC        1 <0>        0.03761
      8 H3          1.1759   -1.1062   -0.3184 HC        1 <0>        0.03761
      9 H4          0.9007    2.0196   -3.8742 HC        1 <0>        0.04191
     10 H5          2.1149    0.7666   -4.2274 HC        1 <0>        0.04191
     11 H6          0.4568    0.6272   -4.8504 HC        1 <0>        0.04191
     12 H7          2.4847    0.5237   -1.6590 HC        1 <0>        0.04513
     13 H8          1.2456    1.7551   -1.3741 HC        1 <0>        0.04513
     14 H9          0.8085   -0.8858   -2.8804 H1        1 <0>        0.02901
     15 H10        -1.2070    0.0442   -3.3122 HO        1 <0>        0.39735
@<TRIPOS>BOND
     1    1    3 1
     2    2    4 1
     3    3    4 1
     4    4    5 1
     5    1    6 1
     6    1    7 1
     7    1    8 1
     8    2    9 1
     9    2   10 1
    10    2   11 1
    11    3   12 1
    12    3   13 1
    13    4   14 1
    14    5   15 1
@<TRIPOS>SUBSTRUCTURE
     1 <0>         1 GROUP 0 A     ****
