@<TRIPOS>MOLECULE
AlkEthOH_c142
   30    29     1     0     0
SMALL
USER_CHARGES

@<TRIPOS>ATOM
      1 C1         -0.5497   -0.0919    2.4606 CT        1 <0>       -0.09013
      2 C2         -1.2717   -1.7367    0.7372 CT        1 <0>       -0.09013
      3 C3          1.1386   -1.4790    1.2816 CT        1 <0>       -0.09013
      4 C4          1.0448    1.4694    0.3109 CT        1 <0>       -0.09131
      5 C5         -1.3789    1.2312   -0.1988 CT        1 <0>       -0.09131
      6 C6          0.2893   -0.2009   -1.4419 CT        1 <0>       -0.08071
      7 C7          0.3320    0.7401   -2.6473 CT        1 <0>        0.13022
      8 C8         -0.1813   -0.6920    1.0816 CT        1 <0>       -0.04222
      9 C9         -0.0537    0.4402   -0.0548 CT        1 <0>       -0.03071
     10 O1          0.6269   -0.0304   -3.8089 OH        1 <0>       -0.60441
     11 H1          0.1856    0.6613    2.7692 HC        1 <0>        0.03501
     12 H2         -1.5252    0.4029    2.4437 HC        1 <0>        0.03501
     13 H3         -0.5634   -0.8531    3.2471 HC        1 <0>        0.03501
     14 H4         -1.0716   -2.2046   -0.2346 HC        1 <0>        0.03501
     15 H5         -2.2644   -1.2807    0.6672 HC        1 <0>        0.03501
     16 H6         -1.3174   -2.5448    1.4723 HC        1 <0>        0.03501
     17 H7          1.4815   -1.9439    0.3517 HC        1 <0>        0.03501
     18 H8          1.9451   -0.8121    1.6108 HC        1 <0>        0.03501
     19 H9          1.0443   -2.2591    2.0422 HC        1 <0>        0.03501
     20 H10         2.0222    0.9887    0.4322 HC        1 <0>        0.03504
     21 H11         0.8192    1.9821    1.2517 HC        1 <0>        0.03504
     22 H12         1.1736    2.2271   -0.4668 HC        1 <0>        0.03504
     23 H13        -2.2169    0.5778   -0.4585 HC        1 <0>        0.03504
     24 H14        -1.3114    1.9953   -0.9804 HC        1 <0>        0.03504
     25 H15        -1.6346    1.7680    0.7202 HC        1 <0>        0.03504
     26 H16         1.2601   -0.7071   -1.3943 HC        1 <0>        0.05700
     27 H17        -0.4362   -0.9908   -1.6744 HC        1 <0>        0.05700
     28 H18        -0.6279    1.2355   -2.8106 H1        1 <0>        0.02196
     29 H19         1.1167    1.4937   -2.5412 H1        1 <0>        0.02196
     30 H20         0.6475    0.5897   -4.5544 HO        1 <0>        0.39759
@<TRIPOS>BOND
     1    1    8 1
     2    2    8 1
     3    3    8 1
     4    4    9 1
     5    5    9 1
     6    6    7 1
     7    6    9 1
     8    7   10 1
     9    8    9 1
    10    1   11 1
    11    1   12 1
    12    1   13 1
    13    2   14 1
    14    2   15 1
    15    2   16 1
    16    3   17 1
    17    3   18 1
    18    3   19 1
    19    4   20 1
    20    4   21 1
    21    4   22 1
    22    5   23 1
    23    5   24 1
    24    5   25 1
    25    6   26 1
    26    6   27 1
    27    7   28 1
    28    7   29 1
    29   10   30 1
@<TRIPOS>SUBSTRUCTURE
     1 <0>         1 GROUP 0 A     ****
