@<TRIPOS>MOLECULE
AlkEthOH_c13
   19    18     1     0     0
SMALL
USER_CHARGES

@<TRIPOS>ATOM
      1 C1         -0.0860   -1.0545    0.2897 CT        1 <0>       -0.07658
      2 C2          1.0678   -1.8475   -0.3214 CT        1 <0>       -0.08447
      3 C3         -0.0898   -1.1663    1.8171 CT        1 <0>       -0.08447
      4 C4          1.1052   -1.7077   -1.8366 CT        1 <0>        0.13229
      5 C5         -1.2526   -0.4094    2.4472 CT        1 <0>        0.13229
      6 O1          2.2049   -2.4536   -2.3397 OH        1 <0>       -0.60155
      7 O2         -1.1993   -0.5290    3.8614 OH        1 <0>       -0.60155
      8 H1         -1.0360   -1.4243   -0.1143 HC        1 <0>        0.03865
      9 H2          0.0000    0.0000    0.0000 HC        1 <0>        0.03865
     10 H3          0.9815   -2.9088   -0.0567 HC        1 <0>        0.05723
     11 H4          2.0242   -1.5110    0.0980 HC        1 <0>        0.05723
     12 H5          0.8520   -0.7738    2.2180 HC        1 <0>        0.05723
     13 H6         -0.1544   -2.2256    2.0945 HC        1 <0>        0.05723
     14 H7          1.2317   -0.6605   -2.1293 H1        1 <0>        0.02011
     15 H8          0.1861   -2.0954   -2.2874 H1        1 <0>        0.02011
     16 H9         -1.1912    0.6526    2.1895 H1        1 <0>        0.02011
     17 H10        -2.2123   -0.8011    2.0954 H1        1 <0>        0.02011
     18 H11         2.2004   -2.3439   -3.3044 HO        1 <0>        0.39869
     19 H12        -1.9560   -0.0330    4.2143 HO        1 <0>        0.39869
@<TRIPOS>BOND
     1    1    2 1
     2    1    3 1
     3    2    4 1
     4    3    5 1
     5    4    6 1
     6    5    7 1
     7    1    8 1
     8    1    9 1
     9    2   10 1
    10    2   11 1
    11    3   12 1
    12    3   13 1
    13    4   14 1
    14    4   15 1
    15    5   16 1
    16    5   17 1
    17    6   18 1
    18    7   19 1
@<TRIPOS>SUBSTRUCTURE
     1 <0>         1 GROUP 0 A     ****
