@<TRIPOS>MOLECULE
AlkEthOH_c231
   19    18     1     0     0
SMALL
USER_CHARGES

@<TRIPOS>ATOM
      1 C1         -0.4921    0.1122    0.9716 CT        1 <0>       -0.09772
      2 C2          1.6723    0.5912    2.1500 CT        1 <0>       -0.09772
      3 C3         -1.4585   -0.8634    3.4011 CT        1 <0>        0.11352
      4 C4          0.7921   -1.7855    2.0067 CT        1 <0>        0.10658
      5 C5          0.4298   -0.2995    2.1208 CT        1 <0>        0.15090
      6 O1          1.8456   -1.9690    1.0676 OH        1 <0>       -0.59580
      7 O2         -0.2710   -0.0901    3.3496 OS        1 <0>       -0.41853
      8 H1         -1.3862   -0.5210    0.9424 HC        1 <0>        0.04740
      9 H2         -0.8084    1.1564    1.0628 HC        1 <0>        0.04740
     10 H3          0.0077   -0.0148    0.0045 HC        1 <0>        0.04740
     11 H4          2.3454    0.3108    2.9678 HC        1 <0>        0.04740
     12 H5          1.3962    1.6368    2.3298 HC        1 <0>        0.04740
     13 H6          2.2270    0.5381    1.2076 HC        1 <0>        0.04740
     14 H7         -1.9710   -0.6828    4.3491 H1        1 <0>        0.03169
     15 H8         -1.2087   -1.9231    3.3057 H1        1 <0>        0.03169
     16 H9         -2.1105   -0.5691    2.5752 H1        1 <0>        0.03169
     17 H10         1.1389   -2.1760    2.9697 H1        1 <0>        0.02891
     18 H11        -0.0689   -2.3748    1.6736 H1        1 <0>        0.02891
     19 H12         2.0297   -2.9213    1.0386 HO        1 <0>        0.40148
@<TRIPOS>BOND
     1    1    5 1
     2    2    5 1
     3    3    7 1
     4    4    5 1
     5    4    6 1
     6    5    7 1
     7    1    8 1
     8    1    9 1
     9    1   10 1
    10    2   11 1
    11    2   12 1
    12    2   13 1
    13    3   14 1
    14    3   15 1
    15    3   16 1
    16    4   17 1
    17    4   18 1
    18    6   19 1
@<TRIPOS>SUBSTRUCTURE
     1 <0>         1 GROUP 0 A     ****
