@<TRIPOS>MOLECULE
AlkEthOH_c612
   24    23     1     0     0
SMALL
USER_CHARGES

@<TRIPOS>ATOM
      1 C1         -0.7682    0.0889   -3.3390 CT        1 <0>       -0.13096
      2 C2         -3.8501    3.0406   -1.5184 CT        1 <0>       -0.08672
      3 C3         -5.0997    0.9571   -0.9078 CT        1 <0>       -0.08672
      4 C4         -4.7339    1.5380   -3.3062 CT        1 <0>       -0.08672
      5 C5         -2.7630    0.7761   -1.9617 CT        1 <0>       -0.06443
      6 C6         -1.7299    1.2257   -3.0066 CT        1 <0>        0.13982
      7 C7         -4.0999    1.5714   -1.8998 CT        1 <0>       -0.05159
      8 O1         -0.9667    2.3116   -2.4915 OH        1 <0>       -0.60128
      9 H1         -0.2538   -0.2725   -2.4434 HC        1 <0>        0.04166
     10 H2         -1.3080   -0.7504   -3.7906 HC        1 <0>        0.04166
     11 H3         -0.0187    0.4108   -4.0706 HC        1 <0>        0.04166
     12 H4         -3.1414    3.5230   -2.1991 HC        1 <0>        0.03474
     13 H5         -3.4307    3.1192   -0.5087 HC        1 <0>        0.03474
     14 H6         -4.7814    3.6176   -1.5364 HC        1 <0>        0.03474
     15 H7         -5.3026   -0.0921   -1.1486 HC        1 <0>        0.03474
     16 H8         -6.0560    1.4926   -0.9310 HC        1 <0>        0.03474
     17 H9         -4.7341    1.0083    0.1226 HC        1 <0>        0.03474
     18 H10        -4.9325    0.5088   -3.6259 HC        1 <0>        0.03474
     19 H11        -5.6854    2.0816   -3.3276 HC        1 <0>        0.03474
     20 H12        -4.0733    1.9980   -4.0499 HC        1 <0>        0.03474
     21 H13        -2.2923    0.8207   -0.9696 HC        1 <0>        0.05116
     22 H14        -3.0055   -0.2795   -2.1457 HC        1 <0>        0.05116
     23 H15        -2.2210    1.5559   -3.9264 H1        1 <0>        0.03300
     24 H16        -0.3412    2.5664   -3.1880 HO        1 <0>        0.39564
@<TRIPOS>BOND
     1    1    6 1
     2    2    7 1
     3    3    7 1
     4    4    7 1
     5    5    6 1
     6    5    7 1
     7    6    8 1
     8    1    9 1
     9    1   10 1
    10    1   11 1
    11    2   12 1
    12    2   13 1
    13    2   14 1
    14    3   15 1
    15    3   16 1
    16    3   17 1
    17    4   18 1
    18    4   19 1
    19    4   20 1
    20    5   21 1
    21    5   22 1
    22    6   23 1
    23    8   24 1
@<TRIPOS>SUBSTRUCTURE
     1 <0>         1 GROUP 0 A     ****
