@<TRIPOS>MOLECULE
AlkEthOH_c483
   25    24     1     0     0
SMALL
USER_CHARGES

@<TRIPOS>ATOM
      1 C1          1.0495   -0.3816   -0.2534 CT        1 <0>       -0.09116
      2 C2          1.1039    1.1686   -2.2261 CT        1 <0>       -0.09116
      3 C3          3.8928    3.2895    4.2629 CT        1 <0>       -0.13274
      4 C4          1.9991    1.9493   -0.0132 CT        1 <0>        0.13150
      5 C5          2.8986    2.6484    2.0423 CT        1 <0>        0.13366
      6 C6          1.8182    0.7470   -0.9439 CT        1 <0>       -0.06693
      7 C7          3.6980    2.1726    3.2486 CT        1 <0>        0.13892
      8 O1          2.9816    1.1060    3.8689 OH        1 <0>       -0.58526
      9 O2          2.7244    1.5597    1.1457 OS        1 <0>       -0.40863
     10 H1          0.0462   -0.0483    0.0327 HC        1 <0>        0.03686
     11 H2          1.5657   -0.7163    0.6529 HC        1 <0>        0.03686
     12 H3          0.9340   -1.2452   -0.9165 HC        1 <0>        0.03686
     13 H4          0.1076    1.5654   -2.0043 HC        1 <0>        0.03686
     14 H5          0.9803    0.3150   -2.9009 HC        1 <0>        0.03686
     15 H6          1.6660    1.9434   -2.7588 HC        1 <0>        0.03686
     16 H7          2.9247    3.6884    4.5848 HC        1 <0>        0.04384
     17 H8          4.4328    2.9348    5.1461 HC        1 <0>        0.04384
     18 H9          4.4470    4.1262    3.8236 HC        1 <0>        0.04384
     19 H10         2.5635    2.7424   -0.5149 H1        1 <0>        0.02449
     20 H11         1.0314    2.3549    0.3013 H1        1 <0>        0.02449
     21 H12         1.9054    3.0014    2.3391 H1        1 <0>        0.03428
     22 H13         3.4259    3.4459    1.5097 H1        1 <0>        0.03428
     23 H14         2.8097    0.3560   -1.2057 HC        1 <0>        0.05928
     24 H15         4.6662    1.7736    2.9266 H1        1 <0>        0.04593
     25 H16         3.5224    0.8104    4.6170 HO        1 <0>        0.39637
@<TRIPOS>BOND
     1    1    6 1
     2    2    6 1
     3    3    7 1
     4    4    6 1
     5    4    9 1
     6    5    7 1
     7    5    9 1
     8    7    8 1
     9    1   10 1
    10    1   11 1
    11    1   12 1
    12    2   13 1
    13    2   14 1
    14    2   15 1
    15    3   16 1
    16    3   17 1
    17    3   18 1
    18    4   19 1
    19    4   20 1
    20    5   21 1
    21    5   22 1
    22    6   23 1
    23    7   24 1
    24    8   25 1
@<TRIPOS>SUBSTRUCTURE
     1 <0>         1 GROUP 0 A     ****
