@<TRIPOS>MOLECULE
AlkEthOH_c844
   32    31     1     0     0
SMALL
USER_CHARGES

@<TRIPOS>ATOM
      1 C1          1.7675    0.6932   -2.7791 CT        1 <0>       -0.12475
      2 C2          0.0037   -1.4326    2.9652 CT        1 <0>       -0.08985
      3 C3          1.5442   -0.9135    1.0796 CT        1 <0>       -0.08985
      4 C4          0.5186    0.9427    2.4091 CT        1 <0>       -0.08985
      5 C5         -2.3274    0.0766   -1.1605 CT        1 <0>       -0.13812
      6 C6         -0.9867   -0.4799    0.8738 CT        1 <0>       -0.08488
      7 C7          0.2771    0.6017   -2.4831 CT        1 <0>        0.33634
      8 C8          0.2693   -0.4470    1.8038 CT        1 <0>       -0.04144
      9 C9         -1.0061    0.3610   -0.4302 CT        1 <0>        0.35453
     10 O1         -0.3671   -0.1240   -3.5255 OH        1 <0>       -0.62669
     11 O2         -0.9692    1.7395   -0.0611 OH        1 <0>       -0.63171
     12 O3          0.1232   -0.0302   -1.2140 OS        1 <0>       -0.39800
     13 H1          2.2210   -0.3028   -2.8041 HC        1 <0>        0.05203
     14 H2          2.2792    1.3060   -2.0304 HC        1 <0>        0.05203
     15 H3          1.9413    1.1540   -3.7582 HC        1 <0>        0.05203
     16 H4         -0.8969   -1.1535    3.5238 HC        1 <0>        0.03690
     17 H5         -0.1357   -2.4538    2.5927 HC        1 <0>        0.03690
     18 H6          0.8392   -1.4496    3.6742 HC        1 <0>        0.03690
     19 H7          1.7888   -0.2530    0.2406 HC        1 <0>        0.03690
     20 H8          1.4191   -1.9257    0.6767 HC        1 <0>        0.03690
     21 H9          2.4074   -0.9512    1.7501 HC        1 <0>        0.03690
     22 H10         0.7137    1.6865    1.6286 HC        1 <0>        0.03690
     23 H11         1.3669    0.9378    3.1009 HC        1 <0>        0.03690
     24 H12        -0.3524    1.2850    2.9806 HC        1 <0>        0.03690
     25 H13        -2.3982    0.6456   -2.0938 HC        1 <0>        0.05284
     26 H14        -3.1870    0.3814   -0.5533 HC        1 <0>        0.05284
     27 H15        -2.4235   -0.9848   -1.4115 HC        1 <0>        0.05284
     28 H16        -1.8497   -0.1687    1.4803 HC        1 <0>        0.05133
     29 H17        -1.1591   -1.5310    0.6001 HC        1 <0>        0.05133
     30 H18        -0.1382    1.6145   -2.4667 H2        1 <0>        0.05653
     31 H19        -0.2212    0.3483   -4.3621 HO        1 <0>        0.40401
     32 H20        -1.7218    1.9251    0.5245 HO        1 <0>        0.41436
@<TRIPOS>BOND
     1    1    7 1
     2    2    8 1
     3    3    8 1
     4    4    8 1
     5    5    9 1
     6    6    8 1
     7    6    9 1
     8    7   10 1
     9    7   12 1
    10    9   11 1
    11    9   12 1
    12    1   13 1
    13    1   14 1
    14    1   15 1
    15    2   16 1
    16    2   17 1
    17    2   18 1
    18    3   19 1
    19    3   20 1
    20    3   21 1
    21    4   22 1
    22    4   23 1
    23    4   24 1
    24    5   25 1
    25    5   26 1
    26    5   27 1
    27    6   28 1
    28    6   29 1
    29    7   30 1
    30   10   31 1
    31   11   32 1
@<TRIPOS>SUBSTRUCTURE
     1 <0>         1 GROUP 0 A     ****
