@<TRIPOS>MOLECULE
AlkEthOH_c168
   24    23     1     0     0
SMALL
USER_CHARGES

@<TRIPOS>ATOM
      1 C1          0.6299   -0.8370    0.3213 CT        1 <0>       -0.08706
      2 C2          1.1985   -2.4488    2.1436 CT        1 <0>       -0.08706
      3 C3         -1.1745   -1.7090    1.8133 CT        1 <0>       -0.08706
      4 C4          0.3206   -0.2964    4.1910 CT        1 <0>       -0.08225
      5 C5          0.5457   -0.0472    2.6969 CT        1 <0>       -0.06831
      6 C6          0.6555    0.9410    5.0158 CT        1 <0>        0.13069
      7 C7          0.2962   -1.2628    1.7648 CT        1 <0>       -0.05282
      8 O1          0.4142    0.6585    6.3875 OH        1 <0>       -0.60210
      9 H1          0.0106    0.0091    0.0026 HC        1 <0>        0.03458
     10 H2          1.6788   -0.5331    0.2309 HC        1 <0>        0.03458
     11 H3          0.4575   -1.6583   -0.3835 HC        1 <0>        0.03458
     12 H4          0.9967   -2.7878    3.1658 HC        1 <0>        0.03458
     13 H5          2.2576   -2.1711    2.0888 HC        1 <0>        0.03458
     14 H6          1.0539   -3.3005    1.4710 HC        1 <0>        0.03458
     15 H7         -1.4587   -2.0221    2.8240 HC        1 <0>        0.03458
     16 H8         -1.8436   -0.8927    1.5177 HC        1 <0>        0.03458
     17 H9         -1.3680   -2.5454    1.1342 HC        1 <0>        0.03458
     18 H10        -0.7199   -0.5781    4.3876 HC        1 <0>        0.05646
     19 H11         0.9352   -1.1316    4.5451 HC        1 <0>        0.05646
     20 H12        -0.1032    0.7812    2.3819 HC        1 <0>        0.03737
     21 H13         1.5770    0.3036    2.5549 HC        1 <0>        0.03737
     22 H14         0.0291    1.7888    4.7202 H1        1 <0>        0.01925
     23 H15         1.7083    1.2165    4.8973 H1        1 <0>        0.01925
     24 H16         0.6364    1.4635    6.8828 HO        1 <0>        0.39859
@<TRIPOS>BOND
     1    1    7 1
     2    2    7 1
     3    3    7 1
     4    4    5 1
     5    4    6 1
     6    5    7 1
     7    6    8 1
     8    1    9 1
     9    1   10 1
    10    1   11 1
    11    2   12 1
    12    2   13 1
    13    2   14 1
    14    3   15 1
    15    3   16 1
    16    3   17 1
    17    4   18 1
    18    4   19 1
    19    5   20 1
    20    5   21 1
    21    6   22 1
    22    6   23 1
    23    8   24 1
@<TRIPOS>SUBSTRUCTURE
     1 <0>         1 GROUP 0 A     ****
