@<TRIPOS>MOLECULE
AlkEthOH_c594
   19    18     1     0     0
SMALL
USER_CHARGES

@<TRIPOS>ATOM
      1 C1          2.3456    2.7447   -1.8632 CT        1 <0>       -0.10710
      2 C2          4.8603    2.7192   -2.0277 CT        1 <0>       -0.10710
      3 C3          4.3122   -1.6989   -1.0894 CT        1 <0>        0.12000
      4 C4          2.8411    0.0653   -0.5260 CT        1 <0>        0.31604
      5 C5          3.6022    1.8883   -1.8264 CT        1 <0>        0.13877
      6 O1          3.1786   -0.9375   -1.4841 OS        1 <0>       -0.45064
      7 O2          3.6773    1.2212   -0.5734 OS        1 <0>       -0.44910
      8 H1          2.3737    3.5242   -1.0958 HC        1 <0>        0.04197
      9 H2          2.2382    3.2219   -2.8432 HC        1 <0>        0.04197
     10 H3          1.4481    2.1350   -1.7107 HC        1 <0>        0.04197
     11 H4          4.9484    3.4982   -1.2643 HC        1 <0>        0.04197
     12 H5          4.8489    3.1954   -3.0140 HC        1 <0>        0.04197
     13 H6          5.7573    2.0910   -1.9922 HC        1 <0>        0.04197
     14 H7          4.5306   -2.4506   -1.8519 H1        1 <0>        0.03574
     15 H8          4.1106   -2.1842   -0.1312 H1        1 <0>        0.03574
     16 H9          5.1700   -1.0305   -0.9837 H1        1 <0>        0.03574
     17 H10         1.7985    0.3595   -0.6915 H2        1 <0>        0.06238
     18 H11         2.8985   -0.3574    0.4835 H2        1 <0>        0.06238
     19 H12         3.5435    1.1198   -2.6041 H1        1 <0>        0.05533
@<TRIPOS>BOND
     1    1    5 1
     2    2    5 1
     3    3    6 1
     4    4    6 1
     5    4    7 1
     6    5    7 1
     7    1    8 1
     8    1    9 1
     9    1   10 1
    10    2   11 1
    11    2   12 1
    12    2   13 1
    13    3   14 1
    14    3   15 1
    15    3   16 1
    16    4   17 1
    17    4   18 1
    18    5   19 1
@<TRIPOS>SUBSTRUCTURE
     1 <0>         1 GROUP 0 A     ****
