@<TRIPOS>MOLECULE
AlkEthOH_c745
   19    18     1     0     0
SMALL
USER_CHARGES

@<TRIPOS>ATOM
      1 C1          0.4755    0.8174   -0.5531 CT        1 <0>       -0.12201
      2 C2         -1.3783    1.5537   -2.8115 CT        1 <0>        0.11610
      3 C3          1.4087   -0.7635   -2.2846 CT        1 <0>       -0.08057
      4 C4          1.4726   -1.1380   -3.7611 CT        1 <0>        0.13438
      5 C5          0.5699    0.4916   -2.0374 CT        1 <0>        0.13871
      6 O1          2.2530   -2.3176   -3.9010 OH        1 <0>       -0.60569
      7 O2         -0.7469    0.3091   -2.5505 OS        1 <0>       -0.42274
      8 H1          0.0379   -0.0129    0.0092 HC        1 <0>        0.04313
      9 H2         -0.1318    1.7136   -0.3845 HC        1 <0>        0.04313
     10 H3          1.4697    1.0302   -0.1457 HC        1 <0>        0.04313
     11 H4         -2.3834    1.3782   -3.2027 H1        1 <0>        0.03222
     12 H5         -0.7869    2.1183   -3.5367 H1        1 <0>        0.03222
     13 H6         -1.4462    2.1201   -1.8797 H1        1 <0>        0.03222
     14 H7          2.4274   -0.6206   -1.9031 HC        1 <0>        0.06251
     15 H8          0.9913   -1.6145   -1.7307 HC        1 <0>        0.06251
     16 H9          0.4742   -1.3353   -4.1636 H1        1 <0>        0.02800
     17 H10         1.9417   -0.3399   -4.3452 H1        1 <0>        0.02800
     18 H11         1.0115    1.3445   -2.5644 H1        1 <0>        0.03603
     19 H12         2.2742   -2.5287   -4.8484 HO        1 <0>        0.39872
@<TRIPOS>BOND
     1    1    5 1
     2    2    7 1
     3    3    4 1
     4    3    5 1
     5    4    6 1
     6    5    7 1
     7    1    8 1
     8    1    9 1
     9    1   10 1
    10    2   11 1
    11    2   12 1
    12    2   13 1
    13    3   14 1
    14    3   15 1
    15    4   16 1
    16    4   17 1
    17    5   18 1
    18    6   19 1
@<TRIPOS>SUBSTRUCTURE
     1 <0>         1 GROUP 0 A     ****
