@<TRIPOS>MOLECULE
AlkEthOH_c289
   31    30     1     0     0
SMALL
USER_CHARGES

@<TRIPOS>ATOM
      1 C1          1.1042    0.4939   -1.6089 CT        1 <0>       -0.08596
      2 C2         -0.9218    1.6061   -0.6542 CT        1 <0>       -0.08596
      3 C3         -2.7168    0.1117   -2.2705 CT        1 <0>       -0.10204
      4 C4         -0.8108   -1.5054   -2.1829 CT        1 <0>       -0.10204
      5 C5         -2.6437    1.0931   -5.5734 CT        1 <0>       -0.13167
      6 C6         -0.2731    1.8137   -5.2658 CT        1 <0>       -0.13167
      7 C7         -0.3101    0.9926   -1.9222 CT        1 <0>       -0.08339
      8 C8         -1.2285   -0.0821   -2.5758 CT        1 <0>        0.19348
      9 C9         -1.5091    1.2554   -4.5593 CT        1 <0>        0.36034
     10 O1         -1.8690    2.2132   -3.5633 OH        1 <0>       -0.61906
     11 O2         -1.0902    0.0111   -4.0012 OS        1 <0>       -0.44337
     12 H1          1.0676   -0.3367   -0.8950 HC        1 <0>        0.03278
     13 H2          1.7162    1.2784   -1.1548 HC        1 <0>        0.03278
     14 H3          1.6155    0.1329   -2.5065 HC        1 <0>        0.03278
     15 H4         -1.0515    0.8382    0.1167 HC        1 <0>        0.03278
     16 H5         -1.9059    2.0436   -0.8495 HC        1 <0>        0.03278
     17 H6         -0.2767    2.3836   -0.2334 HC        1 <0>        0.03278
     18 H7         -3.0539    1.1183   -2.5379 HC        1 <0>        0.04378
     19 H8         -2.9492   -0.0692   -1.2170 HC        1 <0>        0.04378
     20 H9         -3.3251   -0.5742   -2.8724 HC        1 <0>        0.04378
     21 H10         0.2481   -1.6958   -2.3817 HC        1 <0>        0.04378
     22 H11        -1.4066   -2.2497   -2.7233 HC        1 <0>        0.04378
     23 H12        -0.9927   -1.6827   -1.1162 HC        1 <0>        0.04378
     24 H13        -3.5450    0.6938   -5.0957 HC        1 <0>        0.04860
     25 H14        -2.8841    2.0455   -6.0570 HC        1 <0>        0.04860
     26 H15        -2.3736    0.3817   -6.3613 HC        1 <0>        0.04860
     27 H16         0.5518    1.9371   -4.5537 HC        1 <0>        0.04860
     28 H17        -0.4711    2.7987   -5.7022 HC        1 <0>        0.04860
     29 H18         0.0779    1.1365   -6.0518 HC        1 <0>        0.04860
     30 H19        -0.2138    1.8206   -2.6388 HC        1 <0>        0.06866
     31 H20        -2.0377    3.0625   -4.0045 HO        1 <0>        0.41172
@<TRIPOS>BOND
     1    1    7 1
     2    2    7 1
     3    3    8 1
     4    4    8 1
     5    5    9 1
     6    6    9 1
     7    7    8 1
     8    8   11 1
     9    9   10 1
    10    9   11 1
    11    1   12 1
    12    1   13 1
    13    1   14 1
    14    2   15 1
    15    2   16 1
    16    2   17 1
    17    3   18 1
    18    3   19 1
    19    3   20 1
    20    4   21 1
    21    4   22 1
    22    4   23 1
    23    5   24 1
    24    5   25 1
    25    5   26 1
    26    6   27 1
    27    6   28 1
    28    6   29 1
    29    7   30 1
    30   10   31 1
@<TRIPOS>SUBSTRUCTURE
     1 <0>         1 GROUP 0 A     ****
