@<TRIPOS>MOLECULE
AlkEthOH_c1146
   22    21     1     0     0
SMALL
USER_CHARGES

@<TRIPOS>ATOM
      1 C1          2.3495   -2.6313   -2.8903 CT        1 <0>       -0.09103
      2 C2         -1.3870   -0.0280   -0.0281 CT        1 <0>       -0.13047
      3 C3          0.2117    1.6684    0.8662 CT        1 <0>       -0.13047
      4 C4          2.2704   -1.2973   -2.1700 CT        1 <0>       -0.08689
      5 C5          0.9791   -1.1574   -1.3784 CT        1 <0>        0.13733
      6 C6          0.0686    0.2298    0.3677 CT        1 <0>        0.34659
      7 O1          0.4413   -0.6121    1.4590 OH        1 <0>       -0.62427
      8 O2          0.9647    0.1133   -0.7445 OS        1 <0>       -0.41640
      9 H1          2.2734   -3.4636   -2.1833 HC        1 <0>        0.03439
     10 H2          1.5313   -2.7227   -3.6114 HC        1 <0>        0.03439
     11 H3          3.2943   -2.7278   -3.4346 HC        1 <0>        0.03439
     12 H4         -1.5212   -1.0532   -0.3903 HC        1 <0>        0.05117
     13 H5         -2.0651    0.1483    0.8132 HC        1 <0>        0.05117
     14 H6         -1.6987    0.6296   -0.8467 HC        1 <0>        0.05117
     15 H7          1.2499    1.8720    1.1549 HC        1 <0>        0.05117
     16 H8         -0.4094    1.8503    1.7500 HC        1 <0>        0.05117
     17 H9         -0.0536    2.3899    0.0860 HC        1 <0>        0.05117
     18 H10         2.3484   -0.4779   -2.8946 HC        1 <0>        0.05214
     19 H11         3.1286   -1.1862   -1.4966 HC        1 <0>        0.05214
     20 H12         0.1074   -1.2282   -2.0368 H1        1 <0>        0.03569
     21 H13         0.9072   -1.9318   -0.6081 H1        1 <0>        0.03569
     22 H14        -0.1424   -0.4132    2.2102 HO        1 <0>        0.40976
@<TRIPOS>BOND
     1    1    4 1
     2    2    6 1
     3    3    6 1
     4    4    5 1
     5    5    8 1
     6    6    7 1
     7    6    8 1
     8    1    9 1
     9    1   10 1
    10    1   11 1
    11    2   12 1
    12    2   13 1
    13    2   14 1
    14    3   15 1
    15    3   16 1
    16    3   17 1
    17    4   18 1
    18    4   19 1
    19    5   20 1
    20    5   21 1
    21    7   22 1
@<TRIPOS>SUBSTRUCTURE
     1 <0>         1 GROUP 0 A     ****
