@<TRIPOS>MOLECULE
AlkEthOH_c820
   29    28     1     0     0
SMALL
USER_CHARGES

@<TRIPOS>ATOM
      1 C1          2.4456    2.0164    1.3032 CT        1 <0>       -0.13007
      2 C2         -1.5034   -0.9984    1.4110 CT        1 <0>       -0.08808
      3 C3         -1.8743   -1.7416   -0.9512 CT        1 <0>       -0.08808
      4 C4         -2.1435    0.6588   -0.3394 CT        1 <0>       -0.08808
      5 C5          1.1210   -1.5389   -0.1294 CT        1 <0>       -0.14943
      6 C6          1.7532    1.5177    0.0447 CT        1 <0>        0.34830
      7 C7         -1.2998   -0.6121   -0.0694 CT        1 <0>       -0.06168
      8 C8          0.2168   -0.3236   -0.3951 CT        1 <0>        0.36090
      9 O1          1.3834    2.6636   -0.7150 OH        1 <0>       -0.59795
     10 O2          0.2953    0.0187   -1.7845 OH        1 <0>       -0.60583
     11 O3          0.6183    0.7630    0.4614 OS        1 <0>       -0.40647
     12 H1          1.7680    2.6270    1.9086 HC        1 <0>        0.05045
     13 H2          2.7720    1.1747    1.9248 HC        1 <0>        0.05045
     14 H3          3.3352    2.6032    1.0533 HC        1 <0>        0.05045
     15 H4         -1.1132   -0.2306    2.0866 HC        1 <0>        0.04027
     16 H5         -2.5616   -1.1518    1.6474 HC        1 <0>        0.04027
     17 H6         -0.9776   -1.9306    1.6488 HC        1 <0>        0.04027
     18 H7         -1.7574   -1.5215   -2.0176 HC        1 <0>        0.04027
     19 H8         -1.3908   -2.7021   -0.7478 HC        1 <0>        0.04027
     20 H9         -2.9458   -1.8792   -0.7627 HC        1 <0>        0.04027
     21 H10        -2.0411    0.9863   -1.3809 HC        1 <0>        0.04027
     22 H11        -1.8282    1.4932    0.2965 HC        1 <0>        0.04027
     23 H12        -3.2094    0.4822   -0.1585 HC        1 <0>        0.04027
     24 H13         2.1671   -1.3134   -0.3629 HC        1 <0>        0.04925
     25 H14         0.8579   -2.3904   -0.7633 HC        1 <0>        0.04925
     26 H15         1.0964   -1.8425    0.9212 HC        1 <0>        0.04925
     27 H16         2.4610    0.9138   -0.5310 H2        1 <0>        0.03739
     28 H17         2.2010    3.1462   -0.9230 HO        1 <0>        0.39860
     29 H18        -0.0042   -0.7432   -2.3081 HO        1 <0>        0.40895
@<TRIPOS>BOND
     1    1    6 1
     2    2    7 1
     3    3    7 1
     4    4    7 1
     5    5    8 1
     6    6    9 1
     7    6   11 1
     8    7    8 1
     9    8   10 1
    10    8   11 1
    11    1   12 1
    12    1   13 1
    13    1   14 1
    14    2   15 1
    15    2   16 1
    16    2   17 1
    17    3   18 1
    18    3   19 1
    19    3   20 1
    20    4   21 1
    21    4   22 1
    22    4   23 1
    23    5   24 1
    24    5   25 1
    25    5   26 1
    26    6   27 1
    27    9   28 1
    28   10   29 1
@<TRIPOS>SUBSTRUCTURE
     1 <0>         1 GROUP 0 A     ****
