@<TRIPOS>MOLECULE
AlkEthOH_c96
   22    21     1     0     0
SMALL
USER_CHARGES

@<TRIPOS>ATOM
      1 C1          1.0480    1.3278    0.9333 CT        1 <0>       -0.08496
      2 C2         -0.6511   -2.1421    0.3008 CT        1 <0>       -0.13113
      3 C3         -1.2650    1.3768   -1.0902 CT        1 <0>       -0.13113
      4 C4          0.6215    0.0897    0.1241 CT        1 <0>       -0.05531
      5 C5         -0.2385   -0.8518    1.0000 CT        1 <0>        0.14360
      6 C6         -0.0419    0.4774   -1.2190 CT        1 <0>        0.14360
      7 O1          0.4948   -1.2130    2.1737 OH        1 <0>       -0.60072
      8 O2          0.9037    1.1570   -2.0480 OH        1 <0>       -0.60072
      9 H1          0.1768    1.9244    1.2247 HC        1 <0>        0.04241
     10 H2          1.7141    1.9753    0.3544 HC        1 <0>        0.04241
     11 H3          1.5640    1.0440    1.8560 HC        1 <0>        0.04241
     12 H4          0.2129   -2.7034   -0.0646 HC        1 <0>        0.04330
     13 H5         -1.2294   -2.7842    0.9742 HC        1 <0>        0.04330
     14 H6         -1.2987   -1.9210   -0.5551 HC        1 <0>        0.04330
     15 H7         -1.0390    2.3010   -0.5520 HC        1 <0>        0.04330
     16 H8         -1.6839    1.6289   -2.0698 HC        1 <0>        0.04330
     17 H9         -2.0592    0.8529   -0.5461 HC        1 <0>        0.04330
     18 H10         1.5594   -0.4324   -0.1149 HC        1 <0>        0.07554
     19 H11        -1.1379   -0.3305    1.3450 H1        1 <0>        0.02915
     20 H12        -0.3306   -0.4274   -1.7644 H1        1 <0>        0.02915
     21 H13        -0.1070   -1.7421    2.7172 HO        1 <0>        0.39795
     22 H14         0.4663    1.2975   -2.9007 HO        1 <0>        0.39795
@<TRIPOS>BOND
     1    1    4 1
     2    2    5 1
     3    3    6 1
     4    4    5 1
     5    4    6 1
     6    5    7 1
     7    6    8 1
     8    1    9 1
     9    1   10 1
    10    1   11 1
    11    2   12 1
    12    2   13 1
    13    2   14 1
    14    3   15 1
    15    3   16 1
    16    3   17 1
    17    4   18 1
    18    5   19 1
    19    6   20 1
    20    7   21 1
    21    8   22 1
@<TRIPOS>SUBSTRUCTURE
     1 <0>         1 GROUP 0 A     ****
