@<TRIPOS>MOLECULE
AlkEthOH_c436
   30    29     1     0     0
SMALL
USER_CHARGES

@<TRIPOS>ATOM
      1 C1          1.1345    0.2336   -0.3123 CT        1 <0>       -0.09081
      2 C2          0.8930   -0.2440   -2.7573 CT        1 <0>       -0.09081
      3 C3          1.9648    4.6351    1.3631 CT        1 <0>       -0.09081
      4 C4          3.5874    5.5090   -0.3296 CT        1 <0>       -0.09081
      5 C5          0.2468    2.0244   -1.8962 CT        1 <0>       -0.08893
      6 C6          1.8926    3.7953   -1.0464 CT        1 <0>       -0.08893
      7 C7          1.2067    0.8344   -1.7162 CT        1 <0>       -0.06537
      8 C8          2.1624    4.9930   -0.1105 CT        1 <0>       -0.06537
      9 C9          0.4707    3.2222   -0.9585 CT        1 <0>        0.14288
     10 O1         -0.4548    4.2471   -1.3266 OH        1 <0>       -0.60210
     11 H1          0.1201   -0.1156   -0.0911 HC        1 <0>        0.03340
     12 H2          1.4115    0.9702    0.4494 HC        1 <0>        0.03340
     13 H3          1.8015   -0.6282   -0.2130 HC        1 <0>        0.03340
     14 H4         -0.1269   -0.6224   -2.6303 HC        1 <0>        0.03340
     15 H5          0.9844    0.1474   -3.7762 HC        1 <0>        0.03340
     16 H6          1.5777   -1.0928   -2.6567 HC        1 <0>        0.03340
     17 H7          2.6356    3.8209    1.6581 HC        1 <0>        0.03340
     18 H8          2.1862    5.4868    2.0132 HC        1 <0>        0.03340
     19 H9          0.9366    4.3132    1.5593 HC        1 <0>        0.03340
     20 H10         4.3229    4.7327   -0.0935 HC        1 <0>        0.03340
     21 H11         3.7972    6.3790    0.3022 HC        1 <0>        0.03340
     22 H12         3.7388    5.8040   -1.3735 HC        1 <0>        0.03340
     23 H13        -0.7885    1.6776   -1.7716 HC        1 <0>        0.04630
     24 H14         0.3009    2.3781   -2.9351 HC        1 <0>        0.04630
     25 H15         2.0699    4.1283   -2.0778 HC        1 <0>        0.04630
     26 H16         2.6245    3.0072   -0.8345 HC        1 <0>        0.04630
     27 H17         2.2348    1.1698   -1.8958 HC        1 <0>        0.05791
     28 H18         1.4737    5.8090   -0.3614 HC        1 <0>        0.05791
     29 H19         0.2400    2.9339    0.0714 H1        1 <0>        0.03309
     30 H20        -1.3391    3.8671   -1.2181 HO        1 <0>        0.39615
@<TRIPOS>BOND
     1    1    7 1
     2    2    7 1
     3    3    8 1
     4    4    8 1
     5    5    7 1
     6    5    9 1
     7    6    8 1
     8    6    9 1
     9    9   10 1
    10    1   11 1
    11    1   12 1
    12    1   13 1
    13    2   14 1
    14    2   15 1
    15    2   16 1
    16    3   17 1
    17    3   18 1
    18    3   19 1
    19    4   20 1
    20    4   21 1
    21    4   22 1
    22    5   23 1
    23    5   24 1
    24    6   25 1
    25    6   26 1
    26    7   27 1
    27    8   28 1
    28    9   29 1
    29   10   30 1
@<TRIPOS>SUBSTRUCTURE
     1 <0>         1 GROUP 0 A     ****
