@<TRIPOS>MOLECULE
AlkEthOH_c489
   15    14     1     0     0
SMALL
USER_CHARGES

@<TRIPOS>ATOM
      1 C1          1.0765    0.0499    0.1958 CT        1 <0>       -0.10769
      2 C2          2.8427    1.0382    1.6976 CT        1 <0>       -0.10769
      3 C3         -0.5869    2.2451    1.4354 CT        1 <0>        0.11655
      4 C4          1.3532    0.9191    1.4130 CT        1 <0>        0.13624
      5 O1          0.8123    2.2184    1.1940 OS        1 <0>       -0.42183
      6 H1          1.5701    0.4471   -0.6963 HC        1 <0>        0.04279
      7 H2          1.4331   -0.9713    0.3679 HC        1 <0>        0.04279
      8 H3          0.0011   -0.0220   -0.0013 HC        1 <0>        0.04279
      9 H4          3.3785    1.4589    0.8413 HC        1 <0>        0.04279
     10 H5          3.2667    0.0547    1.9270 HC        1 <0>        0.04279
     11 H6          3.0274    1.6718    2.5721 HC        1 <0>        0.04279
     12 H7         -0.9687    3.2536    1.2586 H1        1 <0>        0.03150
     13 H8         -0.7853    1.9446    2.4672 H1        1 <0>        0.03150
     14 H9         -1.0786    1.5472    0.7537 H1        1 <0>        0.03150
     15 H10         0.8468    0.4961    2.2868 H1        1 <0>        0.03318
@<TRIPOS>BOND
     1    1    4 1
     2    2    4 1
     3    3    5 1
     4    4    5 1
     5    1    6 1
     6    1    7 1
     7    1    8 1
     8    2    9 1
     9    2   10 1
    10    2   11 1
    11    3   12 1
    12    3   13 1
    13    3   14 1
    14    4   15 1
@<TRIPOS>SUBSTRUCTURE
     1 <0>         1 GROUP 0 A     ****
