@<TRIPOS>MOLECULE
AlkEthOH_c960
   20    19     1     0     0
SMALL
USER_CHARGES

@<TRIPOS>ATOM
      1 C1         -1.1379   -1.4897   -1.5306 CT        1 <0>       -0.09743
      2 C2          1.4547   -0.3938    1.1508 CT        1 <0>       -0.11266
      3 C3         -0.0737   -1.5694   -0.4391 CT        1 <0>       -0.09432
      4 C4         -0.6853    1.8798    0.7382 CT        1 <0>        0.33498
      5 C5          0.3931   -0.1873    0.0642 CT        1 <0>        0.34097
      6 O1         -0.9620    2.5856   -0.4627 OH        1 <0>       -0.61099
      7 O2          0.9690    0.4930   -1.0513 OH        1 <0>       -0.63116
      8 O3         -0.7710    0.4675    0.5872 OS        1 <0>       -0.47501
      9 H1         -0.7811   -0.9214   -2.3952 HC        1 <0>        0.04276
     10 H2         -2.0536   -1.0180   -1.1617 HC        1 <0>        0.04276
     11 H3         -1.3957   -2.4964   -1.8751 HC        1 <0>        0.04276
     12 H4          1.8201    0.5611    1.5426 HC        1 <0>        0.05313
     13 H5          1.0532   -0.9639    1.9949 HC        1 <0>        0.05313
     14 H6          2.3324   -0.9131    0.7502 HC        1 <0>        0.05313
     15 H7         -0.4882   -2.1477    0.3959 HC        1 <0>        0.05799
     16 H8          0.7805   -2.1272   -0.8426 HC        1 <0>        0.05799
     17 H9          0.2956    2.1838    1.1120 H2        1 <0>        0.05925
     18 H10        -1.4229    2.1817    1.4889 H2        1 <0>        0.05925
     19 H11        -0.8801    3.5337   -0.2637 HO        1 <0>        0.40720
     20 H12         1.6957   -0.0520   -1.3968 HO        1 <0>        0.41627
@<TRIPOS>BOND
     1    1    3 1
     2    2    5 1
     3    3    5 1
     4    4    6 1
     5    4    8 1
     6    5    7 1
     7    5    8 1
     8    1    9 1
     9    1   10 1
    10    1   11 1
    11    2   12 1
    12    2   13 1
    13    2   14 1
    14    3   15 1
    15    3   16 1
    16    4   17 1
    17    4   18 1
    18    6   19 1
    19    7   20 1
@<TRIPOS>SUBSTRUCTURE
     1 <0>         1 GROUP 0 A     ****
