@<TRIPOS>MOLECULE
AlkEthOH_c419
   30    29     1     0     0
SMALL
USER_CHARGES

@<TRIPOS>ATOM
      1 C1         -2.6061   -0.9622   -0.5003 CT        1 <0>       -0.09215
      2 C2         -1.0070   -2.2676   -1.9140 CT        1 <0>       -0.09215
      3 C3          0.3253    2.4375   -0.7858 CT        1 <0>       -0.09035
      4 C4          0.6012    1.2985    3.6312 CT        1 <0>       -0.13109
      5 C5         -0.3877    0.0686   -1.2274 CT        1 <0>       -0.07089
      6 C6          0.2042    0.8185    1.1911 CT        1 <0>       -0.06887
      7 C7         -1.1297   -1.2160   -0.8069 CT        1 <0>       -0.06603
      8 C8         -0.3740    1.2109   -0.1889 CT        1 <0>       -0.06311
      9 C9          0.0488    1.8471    2.3198 CT        1 <0>        0.13838
     10 O1         -1.3283    2.1513    2.5092 OH        1 <0>       -0.60136
     11 H1         -3.1276   -0.5440   -1.3663 HC        1 <0>        0.03382
     12 H2         -3.1156   -1.8865   -0.2082 HC        1 <0>        0.03382
     13 H3         -2.7141   -0.2442    0.3200 HC        1 <0>        0.03382
     14 H4         -1.4605   -1.9183   -2.8479 HC        1 <0>        0.03382
     15 H5         -1.5042   -3.1989   -1.6231 HC        1 <0>        0.03382
     16 H6          0.0444   -2.5008   -2.1135 HC        1 <0>        0.03382
     17 H7          1.3794    2.2427   -1.0044 HC        1 <0>        0.03168
     18 H8          0.2634    3.2951   -0.1080 HC        1 <0>        0.03168
     19 H9         -0.1535    2.7265   -1.7281 HC        1 <0>        0.03168
     20 H10         0.1023    0.3668    3.9147 HC        1 <0>        0.04192
     21 H11         1.6754    1.1031    3.5426 HC        1 <0>        0.04192
     22 H12         0.4798    2.0249    4.4423 HC        1 <0>        0.04192
     23 H13         0.6460   -0.1891   -1.4923 HC        1 <0>        0.03686
     24 H14        -0.8433    0.4484   -2.1525 HC        1 <0>        0.03686
     25 H15         1.2694    0.5888    1.0643 HC        1 <0>        0.04756
     26 H16        -0.2737   -0.1213    1.4999 HC        1 <0>        0.04756
     27 H17        -0.6574   -1.6328    0.0901 HC        1 <0>        0.04467
     28 H18        -1.4133    1.5176   -0.0116 HC        1 <0>        0.07150
     29 H19         0.5735    2.7755    2.0746 H1        1 <0>        0.03197
     30 H20        -1.3723    2.8138    3.2170 HO        1 <0>        0.39692
@<TRIPOS>BOND
     1    1    7 1
     2    2    7 1
     3    3    8 1
     4    4    9 1
     5    5    7 1
     6    5    8 1
     7    6    8 1
     8    6    9 1
     9    9   10 1
    10    1   11 1
    11    1   12 1
    12    1   13 1
    13    2   14 1
    14    2   15 1
    15    2   16 1
    16    3   17 1
    17    3   18 1
    18    3   19 1
    19    4   20 1
    20    4   21 1
    21    4   22 1
    22    5   23 1
    23    5   24 1
    24    6   25 1
    25    6   26 1
    26    7   27 1
    27    8   28 1
    28    9   29 1
    29   10   30 1
@<TRIPOS>SUBSTRUCTURE
     1 <0>         1 GROUP 0 A     ****
