@<TRIPOS>MOLECULE
AlkEthOH_c1040
   24    23     1     0     0
SMALL
USER_CHARGES

@<TRIPOS>ATOM
      1 C1          1.4477   -1.9155    1.0786 CT        1 <0>       -0.09360
      2 C2         -0.2913   -4.8812   -1.5864 CT        1 <0>       -0.10074
      3 C3          1.3843   -3.8070   -3.1121 CT        1 <0>       -0.10074
      4 C4         -0.5745   -1.8850   -3.7069 CT        1 <0>        0.11671
      5 C5          1.1662   -3.0326    0.0842 CT        1 <0>       -0.07592
      6 C6          0.4071   -2.5093   -1.1412 CT        1 <0>       -0.10424
      7 C7          0.1536   -3.5662   -2.2352 CT        1 <0>        0.15112
      8 O1         -0.9126   -3.1052   -3.0679 OS        1 <0>       -0.42570
      9 H1          0.5183   -1.4394    1.4075 HC        1 <0>        0.03325
     10 H2          2.0900   -1.1481    0.6352 HC        1 <0>        0.03325
     11 H3          1.9562   -2.3142    1.9620 HC        1 <0>        0.03325
     12 H4         -1.1729   -4.7282   -0.9535 HC        1 <0>        0.04379
     13 H5          0.4928   -5.2770   -0.9306 HC        1 <0>        0.04379
     14 H6         -0.5326   -5.6399   -2.3379 HC        1 <0>        0.04379
     15 H7          1.7236   -2.8815   -3.5887 HC        1 <0>        0.04379
     16 H8          1.1480   -4.4953   -3.9323 HC        1 <0>        0.04379
     17 H9          2.2119   -4.2324   -2.5357 HC        1 <0>        0.04379
     18 H10        -1.4072   -1.5588   -4.3348 H1        1 <0>        0.03090
     19 H11         0.3213   -2.0279   -4.3165 H1        1 <0>        0.03090
     20 H12        -0.3773   -1.1273   -2.9448 H1        1 <0>        0.03090
     21 H13         2.1167   -3.4837   -0.2211 HC        1 <0>        0.04149
     22 H14         0.5820   -3.8086    0.5900 HC        1 <0>        0.04149
     23 H15        -0.5483   -2.0783   -0.8159 HC        1 <0>        0.04747
     24 H16         0.9966   -1.6902   -1.5747 HC        1 <0>        0.04747
@<TRIPOS>BOND
     1    1    5 1
     2    2    7 1
     3    3    7 1
     4    4    8 1
     5    5    6 1
     6    6    7 1
     7    7    8 1
     8    1    9 1
     9    1   10 1
    10    1   11 1
    11    2   12 1
    12    2   13 1
    13    2   14 1
    14    3   15 1
    15    3   16 1
    16    3   17 1
    17    4   18 1
    18    4   19 1
    19    4   20 1
    20    5   21 1
    21    5   22 1
    22    6   23 1
    23    6   24 1
@<TRIPOS>SUBSTRUCTURE
     1 <0>         1 GROUP 0 A     ****
