@<TRIPOS>MOLECULE
AlkEthOH_c452
   27    26     1     0     0
SMALL
USER_CHARGES

@<TRIPOS>ATOM
      1 C1         -0.0125   -2.6165   -0.7325 CT        1 <0>       -0.09043
      2 C2          0.2433   -2.7396    1.7535 CT        1 <0>       -0.09043
      3 C3         -0.6766    2.7109   -1.4544 CT        1 <0>       -0.12332
      4 C4          1.5427    2.0501   -0.5034 CT        1 <0>       -0.12332
      5 C5          0.1694   -0.4804    0.6536 CT        1 <0>       -0.07288
      6 C6         -0.4217    0.4189   -0.4430 CT        1 <0>       -0.06172
      7 C7         -0.3456   -1.9322    0.5941 CT        1 <0>       -0.06703
      8 C8          0.0276    1.8942   -0.3660 CT        1 <0>        0.14863
      9 O1         -0.3457    2.4400    0.9009 OH        1 <0>       -0.59785
     10 H1          1.0692   -2.6519   -0.9006 HC        1 <0>        0.03244
     11 H2         -0.3898   -3.6449   -0.7443 HC        1 <0>        0.03244
     12 H3         -0.4727   -2.0944   -1.5767 HC        1 <0>        0.03244
     13 H4          1.3356   -2.7800    1.6848 HC        1 <0>        0.03244
     14 H5         -0.0194   -2.2968    2.7203 HC        1 <0>        0.03244
     15 H6         -0.1289   -3.7695    1.7396 HC        1 <0>        0.03244
     16 H7         -1.7655    2.6212   -1.3846 HC        1 <0>        0.04191
     17 H8         -0.4113    3.7718   -1.3809 HC        1 <0>        0.04191
     18 H9         -0.3633    2.3840   -2.4526 HC        1 <0>        0.04191
     19 H10         2.0776    1.4777    0.2612 HC        1 <0>        0.04191
     20 H11         1.8458    3.1002   -0.4341 HC        1 <0>        0.04191
     21 H12         1.8798    1.7070   -1.4887 HC        1 <0>        0.04191
     22 H13         1.2634   -0.4833    0.5790 HC        1 <0>        0.04807
     23 H14        -0.0807   -0.0620    1.6362 HC        1 <0>        0.04807
     24 H15        -0.1600    0.0173   -1.4291 HC        1 <0>        0.04653
     25 H16        -1.5156    0.3794   -0.3573 HC        1 <0>        0.04653
     26 H17        -1.4365   -1.9239    0.7118 HC        1 <0>        0.04656
     27 H18        -0.0512    3.3628    0.8973 HO        1 <0>        0.39649
@<TRIPOS>BOND
     1    1    7 1
     2    2    7 1
     3    3    8 1
     4    4    8 1
     5    5    6 1
     6    5    7 1
     7    6    8 1
     8    8    9 1
     9    1   10 1
    10    1   11 1
    11    1   12 1
    12    2   13 1
    13    2   14 1
    14    2   15 1
    15    3   16 1
    16    3   17 1
    17    3   18 1
    18    4   19 1
    19    4   20 1
    20    4   21 1
    21    5   22 1
    22    5   23 1
    23    6   24 1
    24    6   25 1
    25    7   26 1
    26    9   27 1
@<TRIPOS>SUBSTRUCTURE
     1 <0>         1 GROUP 0 A     ****
