@<TRIPOS>MOLECULE
AlkEthOH_c517
   32    31     1     0     0
SMALL
USER_CHARGES

@<TRIPOS>ATOM
      1 C1          0.1982   -1.7168    2.5761 CT        1 <0>       -0.10700
      2 C2          2.6978   -1.6465    2.2617 CT        1 <0>       -0.10700
      3 C3         -1.9526   -0.8100   -0.2684 CT        1 <0>       -0.13123
      4 C4         -2.2406    1.6245    0.1476 CT        1 <0>       -0.13123
      5 C5          2.3066    0.8027   -0.2070 CT        1 <0>       -0.10325
      6 C6          0.9838   -0.5264   -1.8179 CT        1 <0>       -0.10325
      7 C7          1.3571   -1.0708    1.8321 CT        1 <0>        0.14649
      8 C8         -1.3539    0.5720   -0.5290 CT        1 <0>        0.36394
      9 C9          1.0542   -0.0793   -0.3522 CT        1 <0>        0.36278
     10 O1         -1.3875    0.8106   -1.9364 OH        1 <0>       -0.62488
     11 O2          1.1870   -1.2726    0.4357 OS        1 <0>       -0.44711
     12 O3         -0.0493    0.7526    0.0307 OS        1 <0>       -0.44690
     13 H1          0.1785   -2.7993    2.4174 HC        1 <0>        0.03942
     14 H2          0.2795   -1.5219    3.6509 HC        1 <0>        0.03942
     15 H3         -0.7610   -1.2976    2.2526 HC        1 <0>        0.03942
     16 H4          2.7377   -2.7274    2.0956 HC        1 <0>        0.03942
     17 H5          2.8745   -1.4490    3.3245 HC        1 <0>        0.03942
     18 H6          3.5221   -1.1772    1.7135 HC        1 <0>        0.03942
     19 H7         -1.3556   -1.6014   -0.7317 HC        1 <0>        0.05190
     20 H8         -2.9530   -0.8921   -0.7090 HC        1 <0>        0.05190
     21 H9         -2.0228   -1.0241    0.8023 HC        1 <0>        0.05190
     22 H10        -1.8498    2.6354   -0.0123 HC        1 <0>        0.05190
     23 H11        -3.2530    1.6028   -0.2733 HC        1 <0>        0.05190
     24 H12        -2.3336    1.4400    1.2233 HC        1 <0>        0.05190
     25 H13         2.4189    1.1592    0.8233 HC        1 <0>        0.05316
     26 H14         2.2722    1.6641   -0.8825 HC        1 <0>        0.05316
     27 H15         3.2183    0.2383   -0.4337 HC        1 <0>        0.05316
     28 H16         0.1126   -1.1632   -2.0038 HC        1 <0>        0.05316
     29 H17         0.9386    0.3391   -2.4891 HC        1 <0>        0.05316
     30 H18         1.8790   -1.0837   -2.1116 HC        1 <0>        0.05316
     31 H19         1.3491    0.0094    2.0106 H1        1 <0>        0.05370
     32 H20        -2.3123    0.7765   -2.2330 HO        1 <0>        0.40806
@<TRIPOS>BOND
     1    1    7 1
     2    2    7 1
     3    3    8 1
     4    4    8 1
     5    5    9 1
     6    6    9 1
     7    7   11 1
     8    8   10 1
     9    8   12 1
    10    9   11 1
    11    9   12 1
    12    1   13 1
    13    1   14 1
    14    1   15 1
    15    2   16 1
    16    2   17 1
    17    2   18 1
    18    3   19 1
    19    3   20 1
    20    3   21 1
    21    4   22 1
    22    4   23 1
    23    4   24 1
    24    5   25 1
    25    5   26 1
    26    5   27 1
    27    6   28 1
    28    6   29 1
    29    6   30 1
    30    7   31 1
    31   10   32 1
@<TRIPOS>SUBSTRUCTURE
     1 <0>         1 GROUP 0 A     ****
