@<TRIPOS>MOLECULE
AlkEthOH_c1123
   23    22     1     0     0
SMALL
USER_CHARGES

@<TRIPOS>ATOM
      1 C1         -0.5128    0.6357   -0.8556 CT        1 <0>       -0.09163
      2 C2         -4.1494    0.1528    3.0528 CT        1 <0>       -0.09059
      3 C3         -5.8514    1.8847    2.4493 CT        1 <0>       -0.09059
      4 C4         -1.5837    1.5479   -0.2789 CT        1 <0>       -0.08054
      5 C5         -2.6296    0.7568    0.5083 CT        1 <0>       -0.07949
      6 C6         -3.6835    1.6862    1.1179 CT        1 <0>       -0.07381
      7 C7         -4.7797    0.9408    1.9017 CT        1 <0>       -0.06746
      8 H1         -0.0168    0.0799   -0.0541 HC        1 <0>        0.03251
      9 H2         -0.9477   -0.0881   -1.5521 HC        1 <0>        0.03251
     10 H3          0.2483    1.2128   -1.3904 HC        1 <0>        0.03251
     11 H4         -3.6456    0.8189    3.7615 HC        1 <0>        0.03305
     12 H5         -4.9107   -0.4123    3.6010 HC        1 <0>        0.03305
     13 H6         -3.4112   -0.5633    2.6763 HC        1 <0>        0.03305
     14 H7         -5.4179    2.6262    3.1290 HC        1 <0>        0.03305
     15 H8         -6.6152    1.3263    3.0015 HC        1 <0>        0.03305
     16 H9         -6.3628    2.4182    1.6425 HC        1 <0>        0.03305
     17 H10        -2.0684    2.0951   -1.0958 HC        1 <0>        0.03741
     18 H11        -1.1094    2.2907    0.3729 HC        1 <0>        0.03741
     19 H12        -3.1073    0.0337   -0.1618 HC        1 <0>        0.03986
     20 H13        -2.1358    0.1876    1.3050 HC        1 <0>        0.03986
     21 H14        -3.1816    2.3892    1.7954 HC        1 <0>        0.03915
     22 H15        -4.1406    2.2891    0.3227 HC        1 <0>        0.03915
     23 H16        -5.2661    0.2220    1.2298 HC        1 <0>        0.04544
@<TRIPOS>BOND
     1    1    4 1
     2    2    7 1
     3    3    7 1
     4    4    5 1
     5    5    6 1
     6    6    7 1
     7    1    8 1
     8    1    9 1
     9    1   10 1
    10    2   11 1
    11    2   12 1
    12    2   13 1
    13    3   14 1
    14    3   15 1
    15    3   16 1
    16    4   17 1
    17    4   18 1
    18    5   19 1
    19    5   20 1
    20    6   21 1
    21    6   22 1
    22    7   23 1
@<TRIPOS>SUBSTRUCTURE
     1 <0>         1 GROUP 0 A     ****
