@<TRIPOS>MOLECULE
AlkEthOH_c1114
   25    24     1     0     0
SMALL
USER_CHARGES

@<TRIPOS>ATOM
      1 C1          0.5364   -2.3073    1.7058 CT        1 <0>       -0.09252
      2 C2         -0.7407   -0.2581   -3.0077 CT        1 <0>       -0.10822
      3 C3         -2.5520    1.4594   -2.6596 CT        1 <0>       -0.10822
      4 C4          0.3039   -1.4006    0.5074 CT        1 <0>       -0.07744
      5 C5          0.3458    0.0751    0.9070 CT        1 <0>       -0.10689
      6 C6         -1.1572    1.0006   -2.2622 CT        1 <0>        0.14092
      7 C7          0.1510    1.0116   -0.2879 CT        1 <0>        0.33253
      8 O1          0.2504    2.3468    0.2013 OH        1 <0>       -0.61635
      9 O2         -1.1286    0.7474   -0.8643 OS        1 <0>       -0.40372
     10 H1          1.4989   -2.0914    2.1804 HC        1 <0>        0.03369
     11 H2         -0.2525   -2.1788    2.4537 HC        1 <0>        0.03369
     12 H3          0.5400   -3.3560    1.3925 HC        1 <0>        0.03369
     13 H4         -1.4416   -1.0783   -2.8247 HC        1 <0>        0.04327
     14 H5         -0.6995   -0.0667   -4.0853 HC        1 <0>        0.04327
     15 H6          0.2624   -0.5807   -2.7074 HC        1 <0>        0.04327
     16 H7         -3.2961    0.6801   -2.4684 HC        1 <0>        0.04327
     17 H8         -2.5799    1.7163   -3.7240 HC        1 <0>        0.04327
     18 H9         -2.8413    2.3622   -2.1106 HC        1 <0>        0.04327
     19 H10        -0.6660   -1.6451    0.0596 HC        1 <0>        0.04596
     20 H11         1.0712   -1.6017   -0.2491 HC        1 <0>        0.04596
     21 H12        -0.4375    0.2694    1.6514 HC        1 <0>        0.05562
     22 H13         1.3002    0.3050    1.3972 HC        1 <0>        0.05562
     23 H14        -0.4377    1.8006   -2.4654 H1        1 <0>        0.04654
     24 H15         0.9479    0.8372   -1.0219 H2        1 <0>        0.02607
     25 H16         1.1349    2.4449    0.5928 HO        1 <0>        0.40345
@<TRIPOS>BOND
     1    1    4 1
     2    2    6 1
     3    3    6 1
     4    4    5 1
     5    5    7 1
     6    6    9 1
     7    7    8 1
     8    7    9 1
     9    1   10 1
    10    1   11 1
    11    1   12 1
    12    2   13 1
    13    2   14 1
    14    2   15 1
    15    3   16 1
    16    3   17 1
    17    3   18 1
    18    4   19 1
    19    4   20 1
    20    5   21 1
    21    5   22 1
    22    6   23 1
    23    7   24 1
    24    8   25 1
@<TRIPOS>SUBSTRUCTURE
     1 <0>         1 GROUP 0 A     ****
