@<TRIPOS>MOLECULE
AlkEthOH_c732
   25    24     1     0     0
SMALL
USER_CHARGES

@<TRIPOS>ATOM
      1 C1          0.4483    0.6738   -1.7282 CT        1 <0>       -0.09014
      2 C2          1.0989   -0.6949    1.9002 CT        1 <0>       -0.12315
      3 C3          0.9127   -1.9928   -0.2373 CT        1 <0>       -0.12315
      4 C4         -1.2204    0.3395    0.1569 CT        1 <0>       -0.08319
      5 C5         -2.0906    1.5408   -0.2029 CT        1 <0>        0.13275
      6 C6          0.2699    0.5146   -0.2075 CT        1 <0>       -0.04846
      7 C7          1.1861   -0.6120    0.3700 CT        1 <0>        0.15481
      8 O1         -3.4287    1.2702    0.1966 OH        1 <0>       -0.60559
      9 O2          2.5434   -0.2609    0.0574 OH        1 <0>       -0.60375
     10 H1          0.1299   -0.2252   -2.2657 HC        1 <0>        0.03943
     11 H2         -0.1421    1.5149   -2.1058 HC        1 <0>        0.03943
     12 H3          1.4897    0.8802   -1.9944 HC        1 <0>        0.03943
     13 H4          1.2917    0.2839    2.3539 HC        1 <0>        0.04328
     14 H5          0.1246   -1.0549    2.2430 HC        1 <0>        0.04328
     15 H6          1.8633   -1.3729    2.2983 HC        1 <0>        0.04328
     16 H7          0.9675   -1.9677   -1.3303 HC        1 <0>        0.04328
     17 H8         -0.0643   -2.3861    0.0578 HC        1 <0>        0.04328
     18 H9          1.6750   -2.7132    0.0826 HC        1 <0>        0.04328
     19 H10        -1.6347   -0.5512   -0.3311 HC        1 <0>        0.05599
     20 H11        -1.3300    0.1635    1.2328 HC        1 <0>        0.05599
     21 H12        -1.7489    2.4407    0.3178 H1        1 <0>        0.02268
     22 H13        -2.0929    1.7262   -1.2806 H1        1 <0>        0.02268
     23 H14         0.6145    1.4610    0.2343 HC        1 <0>        0.05819
     24 H15        -3.9548    2.0492   -0.0447 HO        1 <0>        0.39894
     25 H16         3.0910   -0.9693    0.4218 HO        1 <0>        0.39743
@<TRIPOS>BOND
     1    1    6 1
     2    2    7 1
     3    3    7 1
     4    4    5 1
     5    4    6 1
     6    5    8 1
     7    6    7 1
     8    7    9 1
     9    1   10 1
    10    1   11 1
    11    1   12 1
    12    2   13 1
    13    2   14 1
    14    2   15 1
    15    3   16 1
    16    3   17 1
    17    3   18 1
    18    4   19 1
    19    4   20 1
    20    5   21 1
    21    5   22 1
    22    6   23 1
    23    8   24 1
    24    9   25 1
@<TRIPOS>SUBSTRUCTURE
     1 <0>         1 GROUP 0 A     ****
