@<TRIPOS>MOLECULE
AlkEthOH_c429
   30    29     1     0     0
SMALL
USER_CHARGES

@<TRIPOS>ATOM
      1 C1         -1.0433    0.2797   -0.2505 CT        1 <0>       -0.09107
      2 C2         -2.7747    0.8787   -1.9554 CT        1 <0>       -0.09107
      3 C3          3.9950    3.1108   -3.4681 CT        1 <0>       -0.10621
      4 C4          2.8825    3.6543   -1.2729 CT        1 <0>       -0.10621
      5 C5          1.5242   -0.0271   -2.9022 CT        1 <0>       -0.11680
      6 C6         -0.3932    1.5685   -2.3523 CT        1 <0>       -0.07649
      7 C7         -1.3085    0.4923   -1.7411 CT        1 <0>       -0.06690
      8 C8          3.0460    2.6266   -2.3824 CT        1 <0>        0.13789
      9 C9          1.1132    1.2947   -2.2678 CT        1 <0>        0.14109
     10 O1          1.7784    2.3548   -2.9577 OS        1 <0>       -0.42506
     11 H1         -1.1958    1.2047    0.3157 HC        1 <0>        0.03399
     12 H2         -0.0200   -0.0647   -0.0734 HC        1 <0>        0.03399
     13 H3         -1.7163   -0.4817    0.1588 HC        1 <0>        0.03399
     14 H4         -3.0042    1.8269   -1.4577 HC        1 <0>        0.03399
     15 H5         -2.9926    1.0015   -3.0217 HC        1 <0>        0.03399
     16 H6         -3.4505    0.1139   -1.5574 HC        1 <0>        0.03399
     17 H7          3.6460    4.0483   -3.9115 HC        1 <0>        0.04202
     18 H8          4.9968    3.2704   -3.0550 HC        1 <0>        0.04202
     19 H9          4.0984    2.3642   -4.2633 HC        1 <0>        0.04202
     20 H10         2.5071    4.6048   -1.6640 HC        1 <0>        0.04202
     21 H11         3.8419    3.8346   -0.7761 HC        1 <0>        0.04202
     22 H12         2.1918    3.2953   -0.5020 HC        1 <0>        0.04202
     23 H13         1.1957   -0.0787   -3.9459 HC        1 <0>        0.04139
     24 H14         2.6154   -0.1234   -2.9127 HC        1 <0>        0.04139
     25 H15         1.1137   -0.8837   -2.3607 HC        1 <0>        0.04139
     26 H16        -0.5949    2.5365   -1.8727 HC        1 <0>        0.05287
     27 H17        -0.6643    1.7160   -3.4070 HC        1 <0>        0.05287
     28 H18        -1.1426   -0.4591   -2.2600 HC        1 <0>        0.04681
     29 H19         3.4221    1.6892   -1.9598 H1        1 <0>        0.03318
     30 H20         1.4485    1.3303   -1.2263 H1        1 <0>        0.03487
@<TRIPOS>BOND
     1    1    7 1
     2    2    7 1
     3    3    8 1
     4    4    8 1
     5    5    9 1
     6    6    7 1
     7    6    9 1
     8    8   10 1
     9    9   10 1
    10    1   11 1
    11    1   12 1
    12    1   13 1
    13    2   14 1
    14    2   15 1
    15    2   16 1
    16    3   17 1
    17    3   18 1
    18    3   19 1
    19    4   20 1
    20    4   21 1
    21    4   22 1
    22    5   23 1
    23    5   24 1
    24    5   25 1
    25    6   26 1
    26    6   27 1
    27    7   28 1
    28    8   29 1
    29    9   30 1
@<TRIPOS>SUBSTRUCTURE
     1 <0>         1 GROUP 0 A     ****
