@<TRIPOS>MOLECULE
AlkEthOH_c463
   24    23     1     0     0
SMALL
USER_CHARGES

@<TRIPOS>ATOM
      1 C1         -0.6302    2.8243   -1.7915 CT        1 <0>       -0.09077
      2 C2         -0.1389    0.5934   -0.7713 CT        1 <0>       -0.09077
      3 C3         -0.9841    4.0115    0.9682 CT        1 <0>       -0.07838
      4 C4         -0.3605    4.7283    2.1710 CT        1 <0>       -0.08467
      5 C5         -0.2791    2.6797    0.6920 CT        1 <0>       -0.07278
      6 C6         -1.0268    6.0697    2.4518 CT        1 <0>        0.13169
      7 C7         -0.8164    1.9467   -0.5512 CT        1 <0>       -0.06708
      8 O1         -0.4062    6.6956    3.5653 OH        1 <0>       -0.60298
      9 H1          0.4313    3.0276   -1.9687 HC        1 <0>        0.03325
     10 H2         -1.0376    2.3403   -2.6858 HC        1 <0>        0.03325
     11 H3         -1.1366    3.7876   -1.6668 HC        1 <0>        0.03325
     12 H4          0.9410    0.7179   -0.9069 HC        1 <0>        0.03325
     13 H5         -0.5211    0.0966   -1.6681 HC        1 <0>        0.03325
     14 H6         -0.2973   -0.0734    0.0830 HC        1 <0>        0.03325
     15 H7         -2.0478    3.8371    1.1623 HC        1 <0>        0.04029
     16 H8         -0.9140    4.6549    0.0830 HC        1 <0>        0.04029
     17 H9         -0.4551    4.0851    3.0544 HC        1 <0>        0.05479
     18 H10         0.7081    4.8912    1.9902 HC        1 <0>        0.05479
     19 H11        -0.3687    2.0313    1.5728 HC        1 <0>        0.04118
     20 H12         0.7924    2.8719    0.5518 HC        1 <0>        0.04118
     21 H13        -2.0923    5.9408    2.6671 H1        1 <0>        0.02008
     22 H14        -0.9210    6.7287    1.5842 H1        1 <0>        0.02008
     23 H15        -1.8924    1.7747   -0.4206 HC        1 <0>        0.04508
     24 H16        -0.8632    7.5413    3.7033 HO        1 <0>        0.39848
@<TRIPOS>BOND
     1    1    7 1
     2    2    7 1
     3    3    4 1
     4    3    5 1
     5    4    6 1
     6    5    7 1
     7    6    8 1
     8    1    9 1
     9    1   10 1
    10    1   11 1
    11    2   12 1
    12    2   13 1
    13    2   14 1
    14    3   15 1
    15    3   16 1
    16    4   17 1
    17    4   18 1
    18    5   19 1
    19    5   20 1
    20    6   21 1
    21    6   22 1
    22    7   23 1
    23    8   24 1
@<TRIPOS>SUBSTRUCTURE
     1 <0>         1 GROUP 0 A     ****
