@<TRIPOS>MOLECULE
AlkEthOH_c590
   22    21     1     0     0
SMALL
USER_CHARGES

@<TRIPOS>ATOM
      1 C1          2.9653   -3.7240   -1.2261 CT        1 <0>       -0.10792
      2 C2          1.4139   -4.5449    0.5825 CT        1 <0>       -0.10792
      3 C3          0.7769   -0.0127   -0.7752 CT        1 <0>       -0.08692
      4 C4          0.3988    0.9317   -1.9043 CT        1 <0>        0.13261
      5 C5          0.9970   -1.4335   -1.2704 CT        1 <0>        0.13166
      6 C6          1.5807   -3.6110   -0.6065 CT        1 <0>        0.13969
      7 O1          0.2241    2.2375   -1.3720 OH        1 <0>       -0.59745
      8 O2          1.3656   -2.2715   -0.1832 OS        1 <0>       -0.41825
      9 H1          3.7473   -3.4985   -0.4946 HC        1 <0>        0.04318
     10 H2          3.1285   -4.7359   -1.6123 HC        1 <0>        0.04318
     11 H3          3.0737   -3.0420   -2.0766 HC        1 <0>        0.04318
     12 H4          2.1589   -4.3390    1.3571 HC        1 <0>        0.04318
     13 H5          1.5179   -5.5881    0.2653 HC        1 <0>        0.04318
     14 H6          0.4152   -4.4482    1.0226 HC        1 <0>        0.04318
     15 H7          1.6787    0.3512   -0.2665 HC        1 <0>        0.06934
     16 H8         -0.0006    0.0001   -0.0006 HC        1 <0>        0.06934
     17 H9          1.1863    0.9678   -2.6637 H1        1 <0>        0.01888
     18 H10        -0.5382    0.6201   -2.3769 H1        1 <0>        0.01888
     19 H11         1.8025   -1.4679   -2.0104 H1        1 <0>        0.02307
     20 H12         0.0907   -1.8404   -1.7302 H1        1 <0>        0.02307
     21 H13         0.8225   -3.8420   -1.3618 H1        1 <0>        0.03296
     22 H14        -0.0157    2.8138   -2.1158 HO        1 <0>        0.39988
@<TRIPOS>BOND
     1    1    6 1
     2    2    6 1
     3    3    4 1
     4    3    5 1
     5    4    7 1
     6    5    8 1
     7    6    8 1
     8    1    9 1
     9    1   10 1
    10    1   11 1
    11    2   12 1
    12    2   13 1
    13    2   14 1
    14    3   15 1
    15    3   16 1
    16    4   17 1
    17    4   18 1
    18    5   19 1
    19    5   20 1
    20    6   21 1
    21    7   22 1
@<TRIPOS>SUBSTRUCTURE
     1 <0>         1 GROUP 0 A     ****
