@<TRIPOS>MOLECULE
AlkEthOH_c1030
   33    32     1     0     0
SMALL
USER_CHARGES

@<TRIPOS>ATOM
      1 C1         -3.1728   -1.4385    0.7447 CT        1 <0>       -0.09259
      2 C2         -0.5405    0.2190   -2.4796 CT        1 <0>       -0.08577
      3 C3         -0.0405    2.1047   -0.9419 CT        1 <0>       -0.08577
      4 C4          0.8876   -0.4098    2.0062 CT        1 <0>       -0.12559
      5 C5          3.0576   -0.7015    0.8084 CT        1 <0>       -0.12559
      6 C6         -1.9537   -1.2310   -0.1437 CT        1 <0>       -0.08138
      7 C7         -1.5254    0.2408   -0.1604 CT        1 <0>       -0.07142
      8 C8          1.0284   -0.2027   -0.5757 CT        1 <0>       -0.05483
      9 C9         -0.2576    0.5799   -0.9982 CT        1 <0>       -0.03971
     10 C10         1.7074    0.0345    0.7976 CT        1 <0>        0.15609
     11 O1          1.9955    1.4282    0.9351 OH        1 <0>       -0.59355
     12 H1         -4.0129   -0.8226    0.4080 HC        1 <0>        0.03161
     13 H2         -3.4895   -2.4863    0.7386 HC        1 <0>        0.03161
     14 H3         -2.9404   -1.1602    1.7774 HC        1 <0>        0.03161
     15 H4         -0.7070   -0.8570   -2.6036 HC        1 <0>        0.03571
     16 H5         -1.4366    0.7331   -2.8464 HC        1 <0>        0.03571
     17 H6          0.2892    0.5086   -3.1326 HC        1 <0>        0.03571
     18 H7          0.1670    2.4488    0.0759 HC        1 <0>        0.03571
     19 H8          0.7922    2.4116   -1.5844 HC        1 <0>        0.03571
     20 H9         -0.9328    2.6419   -1.2843 HC        1 <0>        0.03571
     21 H10        -0.0858    0.0874    2.0439 HC        1 <0>        0.04184
     22 H11         1.4261   -0.2385    2.9420 HC        1 <0>        0.04184
     23 H12         0.7089   -1.4917    1.9759 HC        1 <0>        0.04184
     24 H13         3.6716   -0.4033   -0.0495 HC        1 <0>        0.04184
     25 H14         2.9246   -1.7881    0.7809 HC        1 <0>        0.04184
     26 H15         3.6382   -0.4467    1.7027 HC        1 <0>        0.04184
     27 H16        -1.1448   -1.8649    0.2314 HC        1 <0>        0.03804
     28 H17        -2.1981   -1.5725   -1.1544 HC        1 <0>        0.03804
     29 H18        -2.3658    0.8340   -0.5487 HC        1 <0>        0.04034
     30 H19        -1.3987    0.5804    0.8716 HC        1 <0>        0.04034
     31 H20         0.8374   -1.2769   -0.6916 HC        1 <0>        0.04450
     32 H21         1.7937    0.0328   -1.3316 HC        1 <0>        0.04450
     33 H22         2.4970    1.5220    1.7583 HO        1 <0>        0.39422
@<TRIPOS>BOND
     1    1    6 1
     2    2    9 1
     3    3    9 1
     4    4   10 1
     5    5   10 1
     6    6    7 1
     7    7    9 1
     8    8    9 1
     9    8   10 1
    10   10   11 1
    11    1   12 1
    12    1   13 1
    13    1   14 1
    14    2   15 1
    15    2   16 1
    16    2   17 1
    17    3   18 1
    18    3   19 1
    19    3   20 1
    20    4   21 1
    21    4   22 1
    22    4   23 1
    23    5   24 1
    24    5   25 1
    25    5   26 1
    26    6   27 1
    27    6   28 1
    28    7   29 1
    29    7   30 1
    30    8   31 1
    31    8   32 1
    32   11   33 1
@<TRIPOS>SUBSTRUCTURE
     1 <0>         1 GROUP 0 A     ****
