@<TRIPOS>MOLECULE
AlkEthOH_c768
   19    18     1     0     0
SMALL
USER_CHARGES

@<TRIPOS>ATOM
      1 C1          0.5464    0.1116   -0.9430 CT        1 <0>       -0.09099
      2 C2          3.1048   -0.0380   -2.6474 CT        1 <0>       -0.12882
      3 C3          0.1936   -2.3259   -1.3596 CT        1 <0>        0.13144
      4 C4          1.2403   -1.2002   -1.3237 CT        1 <0>       -0.05662
      5 C5          2.0155   -1.1053   -2.6590 CT        1 <0>        0.14135
      6 O1          0.8154   -3.5585   -1.6985 OH        1 <0>       -0.60822
      7 O2          1.1112   -0.8280   -3.7260 OH        1 <0>       -0.60648
      8 H1         -0.1933    0.4039   -1.6942 HC        1 <0>        0.04000
      9 H2          1.2741    0.9277   -0.8746 HC        1 <0>        0.04000
     10 H3          0.0399    0.0336    0.0246 HC        1 <0>        0.04000
     11 H4          2.6950    0.9553   -2.4382 HC        1 <0>        0.04177
     12 H5          3.8818   -0.2685   -1.9127 HC        1 <0>        0.04177
     13 H6          3.5747    0.0297   -3.6352 HC        1 <0>        0.04177
     14 H7         -0.5932   -2.1183   -2.0925 H1        1 <0>        0.03105
     15 H8         -0.2736   -2.4455   -0.3761 H1        1 <0>        0.03105
     16 H9          1.9690   -1.4458   -0.5395 HC        1 <0>        0.06084
     17 H10         2.4862   -2.0719   -2.8726 H1        1 <0>        0.05200
     18 H11         0.1158   -4.2316   -1.7075 HO        1 <0>        0.39996
     19 H12         1.6334   -0.8504   -4.5426 HO        1 <0>        0.39813
@<TRIPOS>BOND
     1    1    4 1
     2    2    5 1
     3    3    4 1
     4    3    6 1
     5    4    5 1
     6    5    7 1
     7    1    8 1
     8    1    9 1
     9    1   10 1
    10    2   11 1
    11    2   12 1
    12    2   13 1
    13    3   14 1
    14    3   15 1
    15    4   16 1
    16    5   17 1
    17    6   18 1
    18    7   19 1
@<TRIPOS>SUBSTRUCTURE
     1 <0>         1 GROUP 0 A     ****
