@<TRIPOS>MOLECULE
AlkEthOH_c1209
   20    19     1     0     0
SMALL
USER_CHARGES

@<TRIPOS>ATOM
      1 C1          2.4459   -2.2641   -1.0611 CT        1 <0>       -0.09829
      2 C2          0.3969    0.9248    1.2185 CT        1 <0>       -0.11336
      3 C3          1.8414   -0.8873   -0.8859 CT        1 <0>        0.14190
      4 C4         -1.6058   -0.1369    0.1735 CT        1 <0>        0.11095
      5 C5         -0.1267    0.2159   -0.0329 CT        1 <0>        0.31094
      6 O1         -2.0941   -0.8225   -0.9765 OH        1 <0>       -0.59961
      7 O2         -0.0154    1.1237   -1.1304 OH        1 <0>       -0.61760
      8 O3          0.5706   -1.0157   -0.2648 OS        1 <0>       -0.46366
      9 H1          2.5782   -2.7581   -0.0945 HC        1 <0>        0.04265
     10 H2          1.8062   -2.8890   -1.6929 HC        1 <0>        0.04265
     11 H3          3.4185   -2.1978   -1.5599 HC        1 <0>        0.04265
     12 H4          1.4528    1.1946    1.1117 HC        1 <0>        0.05295
     13 H5          0.2751    0.2967    2.1080 HC        1 <0>        0.05295
     14 H6         -0.1636    1.8449    1.4168 HC        1 <0>        0.05295
     15 H7          1.7118   -0.3988   -1.8562 H1        1 <0>        0.03609
     16 H8          2.4814   -0.2645   -0.2537 H1        1 <0>        0.03609
     17 H9         -1.7363   -0.7984    1.0363 H1        1 <0>        0.06431
     18 H10        -2.2131    0.7649    0.3036 H1        1 <0>        0.06431
     19 H11        -3.0265   -1.0245   -0.8025 HO        1 <0>        0.41539
     20 H12        -0.5506    1.9090   -0.9261 HO        1 <0>        0.42574
@<TRIPOS>BOND
     1    1    3 1
     2    2    5 1
     3    3    8 1
     4    4    5 1
     5    4    6 1
     6    5    7 1
     7    5    8 1
     8    1    9 1
     9    1   10 1
    10    1   11 1
    11    2   12 1
    12    2   13 1
    13    2   14 1
    14    3   15 1
    15    3   16 1
    16    4   17 1
    17    4   18 1
    18    6   19 1
    19    7   20 1
@<TRIPOS>SUBSTRUCTURE
     1 <0>         1 GROUP 0 A     ****
