@<TRIPOS>MOLECULE
AlkEthOH_c1013
   22    21     1     0     0
SMALL
USER_CHARGES

@<TRIPOS>ATOM
      1 C1         -0.7693    2.3219    2.0764 CT        1 <0>       -0.09090
      2 C2          0.4427   -2.5500   -1.9248 CT        1 <0>       -0.12800
      3 C3         -1.1735    1.3047    1.0202 CT        1 <0>       -0.07969
      4 C4          0.0068    0.4120    0.6224 CT        1 <0>       -0.10803
      5 C5          0.7879   -1.5179   -0.8583 CT        1 <0>        0.10833
      6 C6         -0.3951   -0.6399   -0.4181 CT        1 <0>        0.14252
      7 O1          1.2805   -2.2322    0.2773 OH        1 <0>       -0.59958
      8 O2         -0.9546    0.0256   -1.5504 OH        1 <0>       -0.59471
      9 H1         -0.3783    1.8252    2.9701 HC        1 <0>        0.03300
     10 H2         -1.6339    2.9236    2.3735 HC        1 <0>        0.03300
     11 H3          0.0009    2.9994    1.6940 HC        1 <0>        0.03300
     12 H4         -0.3736   -3.2039   -1.5996 HC        1 <0>        0.04762
     13 H5          1.3036   -3.2023   -2.1100 HC        1 <0>        0.04762
     14 H6          0.1632   -2.0794   -2.8712 HC        1 <0>        0.04762
     15 H7         -1.5589    1.8363    0.1427 HC        1 <0>        0.04373
     16 H8         -1.9906    0.6876    1.4115 HC        1 <0>        0.04373
     17 H9          0.7997    1.0539    0.2200 HC        1 <0>        0.05351
     18 H10         0.4013   -0.0862    1.5160 HC        1 <0>        0.05351
     19 H11         1.6063   -0.8859   -1.2216 H1        1 <0>        0.02747
     20 H12        -1.1847   -1.2793   -0.0049 H1        1 <0>        0.08812
     21 H13         2.0621   -2.7182   -0.0248 HO        1 <0>        0.40276
     22 H14        -0.2635    0.6128   -1.8919 HO        1 <0>        0.39537
@<TRIPOS>BOND
     1    1    3 1
     2    2    5 1
     3    3    4 1
     4    4    6 1
     5    5    6 1
     6    5    7 1
     7    6    8 1
     8    1    9 1
     9    1   10 1
    10    1   11 1
    11    2   12 1
    12    2   13 1
    13    2   14 1
    14    3   15 1
    15    3   16 1
    16    4   17 1
    17    4   18 1
    18    5   19 1
    19    6   20 1
    20    7   21 1
    21    8   22 1
@<TRIPOS>SUBSTRUCTURE
     1 <0>         1 GROUP 0 A     ****
