@<TRIPOS>MOLECULE
AlkEthOH_c1032
   32    31     1     0     0
SMALL
USER_CHARGES

@<TRIPOS>ATOM
      1 C1         -2.2008    2.5446   -1.2551 CT        1 <0>       -0.09207
      2 C2         -0.0659   -0.9928    2.2905 CT        1 <0>       -0.09035
      3 C3         -1.0196   -2.7893    0.8559 CT        1 <0>       -0.09035
      4 C4          2.0051    0.7357    0.7862 CT        1 <0>       -0.08981
      5 C5          1.7425    0.5288   -1.6773 CT        1 <0>       -0.08981
      6 C6         -1.2097    1.3936   -1.3581 CT        1 <0>       -0.08137
      7 C7         -0.1346    1.4899   -0.2702 CT        1 <0>       -0.06827
      8 C8          0.4599   -1.0424   -0.2061 CT        1 <0>       -0.06378
      9 C9         -0.5968   -1.3156    0.8900 CT        1 <0>       -0.06488
     10 C10         0.9922    0.4175   -0.3304 CT        1 <0>       -0.04580
     11 H1         -1.6919    3.5099   -1.3401 HC        1 <0>        0.03200
     12 H2         -2.7334    2.5187   -0.2992 HC        1 <0>        0.03200
     13 H3         -2.9416    2.4794   -2.0583 HC        1 <0>        0.03200
     14 H4          0.8379   -1.5699    2.5151 HC        1 <0>        0.03269
     15 H5          0.1770    0.0661    2.4022 HC        1 <0>        0.03269
     16 H6         -0.8149   -1.2373    3.0518 HC        1 <0>        0.03269
     17 H7         -0.1644   -3.4529    1.0241 HC        1 <0>        0.03269
     18 H8         -1.7688   -2.9980    1.6272 HC        1 <0>        0.03269
     19 H9         -1.4632   -3.0444   -0.1124 HC        1 <0>        0.03269
     20 H10         1.5447    0.6768    1.7774 HC        1 <0>        0.03369
     21 H11         2.4031    1.7516    0.6787 HC        1 <0>        0.03369
     22 H12         2.8553    0.0451    0.7607 HC        1 <0>        0.03369
     23 H13         1.0863    0.3155   -2.5274 HC        1 <0>        0.03369
     24 H14         2.1586    1.5326   -1.8188 HC        1 <0>        0.03369
     25 H15         2.5748   -0.1832   -1.7232 HC        1 <0>        0.03369
     26 H16        -1.7631    0.4538   -1.2679 HC        1 <0>        0.03978
     27 H17        -0.7535    1.4142   -2.3528 HC        1 <0>        0.03978
     28 H18        -0.6269    1.4539    0.7097 HC        1 <0>        0.03919
     29 H19         0.3263    2.4860   -0.3275 HC        1 <0>        0.03919
     30 H20         0.0491   -1.3330   -1.1820 HC        1 <0>        0.03787
     31 H21         1.3125   -1.7187   -0.0518 HC        1 <0>        0.03787
     32 H22        -1.4953   -0.7162    0.7160 HC        1 <0>        0.04853
@<TRIPOS>BOND
     1    1    6 1
     2    2    9 1
     3    3    9 1
     4    4   10 1
     5    5   10 1
     6    6    7 1
     7    7   10 1
     8    8    9 1
     9    8   10 1
    10    1   11 1
    11    1   12 1
    12    1   13 1
    13    2   14 1
    14    2   15 1
    15    2   16 1
    16    3   17 1
    17    3   18 1
    18    3   19 1
    19    4   20 1
    20    4   21 1
    21    4   22 1
    22    5   23 1
    23    5   24 1
    24    5   25 1
    25    6   26 1
    26    6   27 1
    27    7   28 1
    28    7   29 1
    29    8   30 1
    30    8   31 1
    31    9   32 1
@<TRIPOS>SUBSTRUCTURE
     1 <0>         1 GROUP 0 A     ****
