@<TRIPOS>MOLECULE
AlkEthOH_c243
   27    26     1     0     0
SMALL
USER_CHARGES

@<TRIPOS>ATOM
      1 C1          0.1466   -1.0282    1.7844 CT        1 <0>       -0.13284
      2 C2          1.1423   -2.5838    0.1197 CT        1 <0>       -0.13284
      3 C3         -0.8703    1.0393   -2.0207 CT        1 <0>       -0.10565
      4 C4          1.0259    1.7984   -0.6282 CT        1 <0>       -0.10565
      5 C5         -2.3994    0.8355    0.2642 CT        1 <0>        0.33456
      6 C6          0.9252   -1.1069    0.4713 CT        1 <0>        0.36454
      7 C7         -0.1656    0.8334   -0.6687 CT        1 <0>        0.36689
      8 O1         -3.0469    0.8013    1.5304 OH        1 <0>       -0.58943
      9 O2          2.2070   -0.5140    0.6805 OH        1 <0>       -0.62268
     10 O3         -1.0345    1.2085    0.4113 OS        1 <0>       -0.43824
     11 O4          0.2320   -0.5442   -0.6470 OS        1 <0>       -0.44442
     12 H1         -0.0363    0.0085    2.0827 HC        1 <0>        0.05337
     13 H2          0.7166   -1.4801    2.6044 HC        1 <0>        0.05337
     14 H3         -0.8211   -1.5333    1.7104 HC        1 <0>        0.05337
     15 H4          1.6996   -2.6779   -0.8198 HC        1 <0>        0.05337
     16 H5          0.1880   -3.1028   -0.0214 HC        1 <0>        0.05337
     17 H6          1.7220   -3.0996    0.8927 HC        1 <0>        0.05337
     18 H7         -1.7386    0.3803   -2.1260 HC        1 <0>        0.05559
     19 H8         -1.1930    2.0797   -2.1413 HC        1 <0>        0.05559
     20 H9         -0.1929    0.8328   -2.8571 HC        1 <0>        0.05559
     21 H10         1.5752    1.7023    0.3156 HC        1 <0>        0.05559
     22 H11         0.7066    2.8391   -0.7464 HC        1 <0>        0.05559
     23 H12         1.7506    1.5752   -1.4176 HC        1 <0>        0.05559
     24 H13        -2.4827   -0.1650   -0.1704 H2        1 <0>        0.01836
     25 H14        -2.9272    1.5513   -0.3734 H2        1 <0>        0.01836
     26 H15        -3.9705    0.5425    1.3717 HO        1 <0>        0.40589
     27 H16         2.6649   -1.0087    1.3804 HO        1 <0>        0.40939
@<TRIPOS>BOND
     1    1    6 1
     2    2    6 1
     3    3    7 1
     4    4    7 1
     5    5    8 1
     6    5   10 1
     7    6    9 1
     8    6   11 1
     9    7   10 1
    10    7   11 1
    11    1   12 1
    12    1   13 1
    13    1   14 1
    14    2   15 1
    15    2   16 1
    16    2   17 1
    17    3   18 1
    18    3   19 1
    19    3   20 1
    20    4   21 1
    21    4   22 1
    22    4   23 1
    23    5   24 1
    24    5   25 1
    25    8   26 1
    26    9   27 1
@<TRIPOS>SUBSTRUCTURE
     1 <0>         1 GROUP 0 A     ****
