@<TRIPOS>MOLECULE
AlkEthOH_c209
   28    27     1     0     0
SMALL
USER_CHARGES

@<TRIPOS>ATOM
      1 C1         -0.5997   -0.3971   -0.8266 CT        1 <0>       -0.08825
      2 C2          0.8563    0.9331   -2.3379 CT        1 <0>       -0.08825
      3 C3         -0.0289   -0.8953   -4.7176 CT        1 <0>       -0.12505
      4 C4         -1.5441   -2.1096   -3.1617 CT        1 <0>       -0.12505
      5 C5          1.3407   -1.5336   -2.0046 CT        1 <0>       -0.08121
      6 C6          2.3307   -1.3353   -0.8562 CT        1 <0>        0.13244
      7 C7          0.2140   -0.4635   -2.1436 CT        1 <0>       -0.02699
      8 C8         -0.7495   -0.8075   -3.3606 CT        1 <0>        0.15877
      9 O1          3.2573   -2.4170   -0.8692 OH        1 <0>       -0.60586
     10 O2         -1.7460    0.2218   -3.4840 OH        1 <0>       -0.60272
     11 H1         -1.0928   -1.3502   -0.6079 HC        1 <0>        0.03965
     12 H2         -1.3907    0.3593   -0.8773 HC        1 <0>        0.03965
     13 H3          0.0355   -0.1399    0.0272 HC        1 <0>        0.03965
     14 H4          1.4565    0.9827   -3.2519 HC        1 <0>        0.03965
     15 H5          0.0972    1.7180   -2.4277 HC        1 <0>        0.03965
     16 H6          1.4982    1.2028   -1.4933 HC        1 <0>        0.03965
     17 H7          0.5617   -0.0007   -4.9335 HC        1 <0>        0.04341
     18 H8          0.6507   -1.7563   -4.7349 HC        1 <0>        0.04341
     19 H9         -0.7306   -1.0616   -5.5409 HC        1 <0>        0.04341
     20 H10        -2.0842   -2.1143   -2.2099 HC        1 <0>        0.04341
     21 H11        -0.9097   -2.9987   -3.2139 HC        1 <0>        0.04341
     22 H12        -2.3166   -2.2084   -3.9347 HC        1 <0>        0.04341
     23 H13         1.9223   -1.5875   -2.9329 HC        1 <0>        0.05544
     24 H14         0.8985   -2.5299   -1.8842 HC        1 <0>        0.05544
     25 H15         1.8277   -1.3374    0.1143 H1        1 <0>        0.02370
     26 H16         2.8988   -0.4083   -0.9691 H1        1 <0>        0.02370
     27 H17         3.8705   -2.2653   -0.1331 HO        1 <0>        0.39845
     28 H18        -2.3337   -0.0644   -4.1955 HO        1 <0>        0.39708
@<TRIPOS>BOND
     1    1    7 1
     2    2    7 1
     3    3    8 1
     4    4    8 1
     5    5    6 1
     6    5    7 1
     7    6    9 1
     8    7    8 1
     9    8   10 1
    10    1   11 1
    11    1   12 1
    12    1   13 1
    13    2   14 1
    14    2   15 1
    15    2   16 1
    16    3   17 1
    17    3   18 1
    18    3   19 1
    19    4   20 1
    20    4   21 1
    21    4   22 1
    22    5   23 1
    23    5   24 1
    24    6   25 1
    25    6   26 1
    26    9   27 1
    27   10   28 1
@<TRIPOS>SUBSTRUCTURE
     1 <0>         1 GROUP 0 A     ****
