@<TRIPOS>MOLECULE
AlkEthOH_c650
   32    31     1     0     0
SMALL
USER_CHARGES

@<TRIPOS>ATOM
      1 C1         -0.3675   -1.1833    3.0836 CT        1 <0>       -0.13330
      2 C2          0.9593    1.9657   -2.5440 CT        1 <0>       -0.10582
      3 C3          3.0210    1.8512   -1.1137 CT        1 <0>       -0.10582
      4 C4          1.8831   -0.2670   -1.8396 CT        1 <0>       -0.10582
      5 C5         -1.5188    1.6972   -0.0951 CT        1 <0>       -0.13167
      6 C6         -0.5131   -0.4640    0.6697 CT        1 <0>       -0.11101
      7 C7         -0.2985   -0.0021    2.1222 CT        1 <0>        0.15017
      8 C8          1.6817    1.1942   -1.4405 CT        1 <0>        0.18545
      9 C9         -0.4228    0.6641   -0.3872 CT        1 <0>        0.37200
     10 O1          0.9812    0.6088    2.2495 OH        1 <0>       -0.57552
     11 O2         -0.6497    0.0801   -1.6704 OH        1 <0>       -0.62302
     12 O3          0.8865    1.2362   -0.2650 OS        1 <0>       -0.41730
     13 H1          0.3835   -1.9360    2.8206 HC        1 <0>        0.04156
     14 H2         -1.3429   -1.6789    3.0257 HC        1 <0>        0.04156
     15 H3         -0.1941   -0.8667    4.1165 HC        1 <0>        0.04156
     16 H4         -0.0025    1.4973   -2.7815 HC        1 <0>        0.04315
     17 H5          0.7776    3.0063   -2.2561 HC        1 <0>        0.04315
     18 H6          1.5432    1.9602   -3.4716 HC        1 <0>        0.04315
     19 H7          3.5427    1.3009   -0.3224 HC        1 <0>        0.04315
     20 H8          2.8743    2.8697   -0.7363 HC        1 <0>        0.04315
     21 H9          3.6732    1.8975   -1.9918 HC        1 <0>        0.04315
     22 H10         2.4013   -0.8206   -1.0482 HC        1 <0>        0.04315
     23 H11         0.9294   -0.7649   -2.0421 HC        1 <0>        0.04315
     24 H12         2.5127   -0.3435   -2.7335 HC        1 <0>        0.04315
     25 H13        -1.4961    2.5189   -0.8189 HC        1 <0>        0.04825
     26 H14        -2.5148    1.2473   -0.1737 HC        1 <0>        0.04825
     27 H15        -1.3981    2.1338    0.9018 HC        1 <0>        0.04825
     28 H16        -1.5038   -0.9323    0.6033 HC        1 <0>        0.05763
     29 H17         0.2419   -1.2259    0.4337 HC        1 <0>        0.05763
     30 H18        -1.0568    0.7364    2.4038 H1        1 <0>        0.02862
     31 H19         1.0596    0.8995    3.1718 HO        1 <0>        0.39142
     32 H20        -1.5200   -0.3521   -1.6614 HO        1 <0>        0.40858
@<TRIPOS>BOND
     1    1    7 1
     2    2    8 1
     3    3    8 1
     4    4    8 1
     5    5    9 1
     6    6    7 1
     7    6    9 1
     8    7   10 1
     9    8   12 1
    10    9   11 1
    11    9   12 1
    12    1   13 1
    13    1   14 1
    14    1   15 1
    15    2   16 1
    16    2   17 1
    17    2   18 1
    18    3   19 1
    19    3   20 1
    20    3   21 1
    21    4   22 1
    22    4   23 1
    23    4   24 1
    24    5   25 1
    25    5   26 1
    26    5   27 1
    27    6   28 1
    28    6   29 1
    29    7   30 1
    30   10   31 1
    31   11   32 1
@<TRIPOS>SUBSTRUCTURE
     1 <0>         1 GROUP 0 A     ****
