@<TRIPOS>MOLECULE
AlkEthOH_c598
   23    22     1     0     0
SMALL
USER_CHARGES

@<TRIPOS>ATOM
      1 C1         -1.2457   -0.0798    2.8183 CT        1 <0>       -0.13129
      2 C2          1.8929    0.0268   -2.3271 CT        1 <0>       -0.12679
      3 C3         -1.0258   -0.1619    0.3053 CT        1 <0>       -0.10457
      4 C4         -0.4261    0.3633    1.6130 CT        1 <0>        0.14250
      5 C5          1.1855   -0.3217   -1.0214 CT        1 <0>        0.14473
      6 C6         -0.2463    0.2337   -0.9611 CT        1 <0>        0.14961
      7 O1         -0.3754    1.7867    1.5923 OH        1 <0>       -0.60891
      8 O2          1.1522   -1.7408   -0.8860 OH        1 <0>       -0.60108
      9 O3         -0.9772   -0.2494   -2.0920 OH        1 <0>       -0.59945
     10 H1         -2.2794    0.2704    2.7255 HC        1 <0>        0.04414
     11 H2         -1.2892   -1.1725    2.8855 HC        1 <0>        0.04414
     12 H3         -0.8263    0.3123    3.7498 HC        1 <0>        0.04414
     13 H4          1.3433   -0.3529   -3.1951 HC        1 <0>        0.04861
     14 H5          2.8819   -0.4434   -2.3589 HC        1 <0>        0.04861
     15 H6          2.0214    1.1082   -2.4326 HC        1 <0>        0.04861
     16 H7         -2.0484    0.2255    0.1970 HC        1 <0>        0.06193
     17 H8         -1.1325   -1.2532    0.3522 HC        1 <0>        0.06193
     18 H9          0.5984   -0.0013    1.7363 H1        1 <0>        0.04041
     19 H10         1.7713    0.0778   -0.1867 H1        1 <0>        0.03409
     20 H11        -0.2088    1.3260   -1.0493 H1        1 <0>        0.05660
     21 H12         0.0446    2.0610    2.4225 HO        1 <0>        0.40036
     22 H13         2.0750   -2.0384   -0.8772 HO        1 <0>        0.40079
     23 H14        -1.8455    0.1773   -2.0556 HO        1 <0>        0.40089
@<TRIPOS>BOND
     1    1    4 1
     2    2    5 1
     3    3    4 1
     4    3    6 1
     5    4    7 1
     6    5    6 1
     7    5    8 1
     8    6    9 1
     9    1   10 1
    10    1   11 1
    11    1   12 1
    12    2   13 1
    13    2   14 1
    14    2   15 1
    15    3   16 1
    16    3   17 1
    17    4   18 1
    18    5   19 1
    19    6   20 1
    20    7   21 1
    21    8   22 1
    22    9   23 1
@<TRIPOS>SUBSTRUCTURE
     1 <0>         1 GROUP 0 A     ****
