@<TRIPOS>MOLECULE
AlkEthOH_c641
   23    22     1     0     0
SMALL
USER_CHARGES

@<TRIPOS>ATOM
      1 C1         -2.2051   -0.8453   -1.6663 CT        1 <0>       -0.13125
      2 C2          0.2351    1.3591    1.4990 CT        1 <0>       -0.12876
      3 C3         -0.0530   -0.0751   -0.6008 CT        1 <0>       -0.05942
      4 C4          2.2563    0.5183    0.2925 CT        1 <0>        0.09682
      5 C5         -1.5010   -0.5286   -0.3514 CT        1 <0>        0.14580
      6 C6          0.7962    0.2047    0.6649 CT        1 <0>        0.16296
      7 O1          2.8110   -0.5376   -0.4843 OH        1 <0>       -0.58498
      8 O2         -1.5089   -1.6978    0.4601 OH        1 <0>       -0.56764
      9 O3          0.8032   -0.9536    1.5038 OH        1 <0>       -0.55050
     10 H1         -1.6650   -1.6270   -2.2114 HC        1 <0>        0.04120
     11 H2         -3.2307   -1.1866   -1.4963 HC        1 <0>        0.04120
     12 H3         -2.2294    0.0333   -2.3202 HC        1 <0>        0.04120
     13 H4          0.8553    1.5336    2.3863 HC        1 <0>        0.04290
     14 H5          0.1921    2.2886    0.9224 HC        1 <0>        0.04290
     15 H6         -0.7664    1.1312    1.8792 HC        1 <0>        0.04290
     16 H7         -0.0683    0.8262   -1.2269 HC        1 <0>        0.06460
     17 H8          0.4423   -0.8673   -1.1783 HC        1 <0>        0.06460
     18 H9          2.3228    1.4431   -0.2905 H1        1 <0>        0.02282
     19 H10         2.8722    0.6189    1.1929 H1        1 <0>        0.02282
     20 H11        -2.0620    0.2536    0.1698 H1        1 <0>        0.02096
     21 H12         3.7254   -0.2835   -0.6863 HO        1 <0>        0.39703
     22 H13        -2.4400   -1.9287    0.6061 HO        1 <0>        0.38576
     23 H14         1.3711   -0.7387    2.2581 HO        1 <0>        0.38608
@<TRIPOS>BOND
     1    1    5 1
     2    2    6 1
     3    3    5 1
     4    3    6 1
     5    4    6 1
     6    4    7 1
     7    5    8 1
     8    6    9 1
     9    1   10 1
    10    1   11 1
    11    1   12 1
    12    2   13 1
    13    2   14 1
    14    2   15 1
    15    3   16 1
    16    3   17 1
    17    4   18 1
    18    4   19 1
    19    5   20 1
    20    7   21 1
    21    8   22 1
    22    9   23 1
@<TRIPOS>SUBSTRUCTURE
     1 <0>         1 GROUP 0 A     ****
