@<TRIPOS>MOLECULE
AlkEthOH_c1226
   22    21     1     0     0
SMALL
USER_CHARGES

@<TRIPOS>ATOM
      1 C1          1.4761    4.5554   -1.4836 CT        1 <0>       -0.09593
      2 C2         -0.9553    0.4818   -0.2077 CT        1 <0>       -0.13051
      3 C3         -0.3490    1.5118   -3.9233 CT        1 <0>       -0.11813
      4 C4          1.3697    3.1763   -2.0989 CT        1 <0>        0.12878
      5 C5         -1.2082    0.6003   -1.7062 CT        1 <0>        0.14642
      6 C6         -0.0897    1.3641   -2.4285 CT        1 <0>        0.14421
      7 O1         -2.4504    1.2717   -1.9070 OH        1 <0>       -0.59036
      8 O2          0.0656    2.6662   -1.8674 OS        1 <0>       -0.41212
      9 H1          0.7494    5.2393   -1.9307 HC        1 <0>        0.04433
     10 H2          1.3015    4.5106   -0.4035 HC        1 <0>        0.04433
     11 H3          2.4815    4.9652   -1.6267 HC        1 <0>        0.04433
     12 H4         -0.8584    1.4672    0.2604 HC        1 <0>        0.04746
     13 H5         -0.0508   -0.0987   -0.0023 HC        1 <0>        0.04746
     14 H6         -1.8018   -0.0117    0.2823 HC        1 <0>        0.04746
     15 H7         -1.2912    2.0347   -4.1123 HC        1 <0>        0.04662
     16 H8          0.4621    2.0550   -4.4201 HC        1 <0>        0.04662
     17 H9         -0.3970    0.5255   -4.3979 HC        1 <0>        0.04662
     18 H10         2.0991    2.4973   -1.6474 H1        1 <0>        0.02318
     19 H11         1.5436    3.2229   -3.1781 H1        1 <0>        0.02318
     20 H12        -1.2996   -0.4020   -2.1404 H1        1 <0>        0.03330
     21 H13         0.8600    0.8372   -2.2840 H1        1 <0>        0.03173
     22 H14        -3.1291    0.7293   -1.4768 HO        1 <0>        0.40102
@<TRIPOS>BOND
     1    1    4 1
     2    2    5 1
     3    3    6 1
     4    4    8 1
     5    5    6 1
     6    5    7 1
     7    6    8 1
     8    1    9 1
     9    1   10 1
    10    1   11 1
    11    2   12 1
    12    2   13 1
    13    2   14 1
    14    3   15 1
    15    3   16 1
    16    3   17 1
    17    4   18 1
    18    4   19 1
    19    5   20 1
    20    6   21 1
    21    7   22 1
@<TRIPOS>SUBSTRUCTURE
     1 <0>         1 GROUP 0 A     ****
