@<TRIPOS>MOLECULE
AlkEthOH_c1299
   13    12     1     0     0
SMALL
USER_CHARGES

@<TRIPOS>ATOM
      1 C1          1.0116    0.1712    0.4206 CT        1 <0>        0.11984
      2 C2          3.4841    1.7677   -1.8714 CT        1 <0>        0.11984
      3 C3          2.7630    1.7603    0.3811 CT        1 <0>        0.31338
      4 O1          1.3911    1.4995    0.0855 OS        1 <0>       -0.44827
      5 O2          3.6773    1.2212   -0.5734 OS        1 <0>       -0.44827
      6 H1         -0.0429    0.0203    0.1770 H1        1 <0>        0.03630
      7 H2          1.1779    0.0020    1.4875 H1        1 <0>        0.03630
      8 H3          1.6204   -0.5287   -0.1566 H1        1 <0>        0.03630
      9 H4          4.2043    1.3260   -2.5644 H1        1 <0>        0.03630
     10 H5          3.6157    2.8521   -1.8344 H1        1 <0>        0.03630
     11 H6          2.4703    1.5369   -2.2070 H1        1 <0>        0.03630
     12 H7          2.8986    2.8457    0.4467 H2        1 <0>        0.06284
     13 H8          3.0117    1.3462    1.3648 H2        1 <0>        0.06284
@<TRIPOS>BOND
     1    1    4 1
     2    2    5 1
     3    3    4 1
     4    3    5 1
     5    1    6 1
     6    1    7 1
     7    1    8 1
     8    2    9 1
     9    2   10 1
    10    2   11 1
    11    3   12 1
    12    3   13 1
@<TRIPOS>SUBSTRUCTURE
     1 <0>         1 GROUP 0 A     ****
