@<TRIPOS>MOLECULE
AlkEthOH_c294
   25    24     1     0     0
SMALL
USER_CHARGES

@<TRIPOS>ATOM
      1 C1         -0.3691    1.0127   -0.3915 CT        1 <0>       -0.08902
      2 C2         -0.5768    2.4074   -2.4566 CT        1 <0>       -0.08902
      3 C3         -2.7168    0.1117   -2.2705 CT        1 <0>       -0.09962
      4 C4         -0.8108   -1.5054   -2.1829 CT        1 <0>       -0.09962
      5 C5          0.1149   -0.5864   -4.4527 CT        1 <0>        0.32722
      6 C6         -0.3101    0.9926   -1.9222 CT        1 <0>       -0.08413
      7 C7         -1.2285   -0.0821   -2.5758 CT        1 <0>        0.15942
      8 O1          0.0016   -1.9874   -4.6571 OH        1 <0>       -0.62384
      9 O2         -1.0902    0.0111   -4.0012 OS        1 <0>       -0.40995
     10 H1         -1.3843    1.2454   -0.0508 HC        1 <0>        0.03658
     11 H2          0.2913    1.7777    0.0267 HC        1 <0>        0.03658
     12 H3         -0.0924    0.0450    0.0381 HC        1 <0>        0.03658
     13 H4         -1.5979    2.7213   -2.2120 HC        1 <0>        0.03658
     14 H5         -0.4711    2.4565   -3.5449 HC        1 <0>        0.03658
     15 H6          0.1039    3.1394   -2.0111 HC        1 <0>        0.03658
     16 H7         -3.0539    1.1183   -2.5379 HC        1 <0>        0.04619
     17 H8         -2.9492   -0.0692   -1.2170 HC        1 <0>        0.04619
     18 H9         -3.3251   -0.5742   -2.8724 HC        1 <0>        0.04619
     19 H10         0.2481   -1.6958   -2.3817 HC        1 <0>        0.04619
     20 H11        -1.4066   -2.2497   -2.7233 HC        1 <0>        0.04619
     21 H12        -0.9927   -1.6827   -1.1162 HC        1 <0>        0.04619
     22 H13         0.9507   -0.3687   -3.7777 H2        1 <0>        0.03478
     23 H14         0.3448   -0.1352   -5.4222 H2        1 <0>        0.03478
     24 H15         0.7250    0.7555   -2.2067 HC        1 <0>        0.03954
     25 H16         0.8682   -2.3047   -4.9628 HO        1 <0>        0.40284
@<TRIPOS>BOND
     1    1    6 1
     2    2    6 1
     3    3    7 1
     4    4    7 1
     5    5    8 1
     6    5    9 1
     7    6    7 1
     8    7    9 1
     9    1   10 1
    10    1   11 1
    11    1   12 1
    12    2   13 1
    13    2   14 1
    14    2   15 1
    15    3   16 1
    16    3   17 1
    17    3   18 1
    18    4   19 1
    19    4   20 1
    20    4   21 1
    21    5   22 1
    22    5   23 1
    23    6   24 1
    24    8   25 1
@<TRIPOS>SUBSTRUCTURE
     1 <0>         1 GROUP 0 A     ****
