@<TRIPOS>MOLECULE
AlkEthOH_c841
   27    26     1     0     0
SMALL
USER_CHARGES

@<TRIPOS>ATOM
      1 C1         -1.3233   -2.2727   -1.1873 CT        1 <0>       -0.12796
      2 C2         -1.4129    0.2998    2.4877 CT        1 <0>       -0.12796
      3 C3          2.2953    0.1533   -0.3617 CT        1 <0>       -0.09941
      4 C4          0.7262    1.9433   -1.0575 CT        1 <0>       -0.09941
      5 C5          0.0253   -1.6970   -0.7844 CT        1 <0>        0.33550
      6 C6         -0.9642    0.9988    1.2140 CT        1 <0>        0.33550
      7 C7          0.8187    0.5680   -0.3846 CT        1 <0>        0.35706
      8 O1          1.0241   -2.4581   -1.4553 OH        1 <0>       -0.62246
      9 O2         -1.1034    2.3987    1.4319 OH        1 <0>       -0.62246
     10 O3          0.0373   -0.3291   -1.1884 OS        1 <0>       -0.44529
     11 O4          0.3940    0.6280    0.9857 OS        1 <0>       -0.44529
     12 H1         -1.4783   -2.1772   -2.2681 HC        1 <0>        0.05147
     13 H2         -2.1402   -1.7393   -0.6910 HC        1 <0>        0.05147
     14 H3         -1.3852   -3.3372   -0.9402 HC        1 <0>        0.05147
     15 H4         -0.7803    0.5837    3.3347 HC        1 <0>        0.05147
     16 H5         -1.3442   -0.7885    2.3773 HC        1 <0>        0.05147
     17 H6         -2.4552    0.5404    2.7196 HC        1 <0>        0.05147
     18 H7          2.4206   -0.8275    0.1108 HC        1 <0>        0.05643
     19 H8          2.9110    0.8870    0.1688 HC        1 <0>        0.05643
     20 H9          2.6935    0.0513   -1.3769 HC        1 <0>        0.05643
     21 H10        -0.3083    2.2987   -1.1058 HC        1 <0>        0.05643
     22 H11         1.1188    1.9112   -2.0794 HC        1 <0>        0.05643
     23 H12         1.3343    2.6831   -0.5244 HC        1 <0>        0.05643
     24 H13         0.1478   -1.8082    0.2991 H2        1 <0>        0.05089
     25 H14        -1.6196    0.6901    0.3916 H2        1 <0>        0.05089
     26 H15         0.9327   -3.3818   -1.1697 HO        1 <0>        0.40650
     27 H16        -2.0389    2.5758    1.6235 HO        1 <0>        0.40650
@<TRIPOS>BOND
     1    1    5 1
     2    2    6 1
     3    3    7 1
     4    4    7 1
     5    5    8 1
     6    5   10 1
     7    6    9 1
     8    6   11 1
     9    7   10 1
    10    7   11 1
    11    1   12 1
    12    1   13 1
    13    1   14 1
    14    2   15 1
    15    2   16 1
    16    2   17 1
    17    3   18 1
    18    3   19 1
    19    3   20 1
    20    4   21 1
    21    4   22 1
    22    4   23 1
    23    5   24 1
    24    6   25 1
    25    8   26 1
    26    9   27 1
@<TRIPOS>SUBSTRUCTURE
     1 <0>         1 GROUP 0 A     ****
