@<TRIPOS>MOLECULE
AlkEthOH_c27
   17    16     1     0     0
SMALL
USER_CHARGES

@<TRIPOS>ATOM
      1 C1         -2.3167   -0.5412   -1.5872 CT        1 <0>        0.12992
      2 C2         -4.4129    1.6730    2.0964 CT        1 <0>        0.12995
      3 C3         -2.1461   -0.1936   -0.1209 CT        1 <0>        0.11932
      4 C4         -3.1767    0.8947    1.6891 CT        1 <0>        0.11932
      5 O1         -3.4801   -1.3449   -1.7413 OH        1 <0>       -0.59579
      6 O2         -4.4944    2.8577    1.3135 OH        1 <0>       -0.59579
      7 O3         -3.2827    0.5410    0.3172 OS        1 <0>       -0.41675
      8 H1         -1.4586   -1.1085   -1.9605 H1        1 <0>        0.03933
      9 H2         -2.4461    0.3668   -2.1833 H1        1 <0>        0.03933
     10 H3         -4.3667    1.9635    3.1504 H1        1 <0>        0.03933
     11 H4         -5.3147    1.0806    1.9164 H1        1 <0>        0.03933
     12 H5         -1.2579    0.4263    0.0370 H1        1 <0>        0.03738
     13 H6         -2.0726   -1.1033    0.4822 H1        1 <0>        0.03738
     14 H7         -3.0803   -0.0265    2.2722 H1        1 <0>        0.03738
     15 H8         -2.2793    1.5072    1.8168 H1        1 <0>        0.03738
     16 H9         -3.5565   -1.5467   -2.6876 HO        1 <0>        0.40149
     17 H10        -5.2936    3.3275    1.6007 HO        1 <0>        0.40149
@<TRIPOS>BOND
     1    1    3 1
     2    1    5 1
     3    2    4 1
     4    2    6 1
     5    3    7 1
     6    4    7 1
     7    1    8 1
     8    1    9 1
     9    2   10 1
    10    2   11 1
    11    3   12 1
    12    3   13 1
    13    4   14 1
    14    4   15 1
    15    5   16 1
    16    6   17 1
@<TRIPOS>SUBSTRUCTURE
     1 <0>         1 GROUP 0 A     ****
