@<TRIPOS>MOLECULE
AlkEthOH_c1247
   28    27     1     0     0
SMALL
USER_CHARGES

@<TRIPOS>ATOM
      1 C1          0.5777    1.7487    3.6076 CT        1 <0>       -0.09741
      2 C2          0.0443    0.1689   -2.6833 CT        1 <0>       -0.08865
      3 C3         -1.7490   -0.1064   -0.9667 CT        1 <0>       -0.08865
      4 C4         -0.0233    1.6904   -0.7083 CT        1 <0>       -0.08865
      5 C5          0.6552   -0.7726   -0.4463 CT        1 <0>       -0.09839
      6 C6          0.2170    0.4051    3.0105 CT        1 <0>        0.13144
      7 C7          0.4783   -0.9282    1.0711 CT        1 <0>        0.33403
      8 C8         -0.2664    0.2463   -1.1739 CT        1 <0>       -0.04620
      9 O1          1.3869   -1.9484    1.4891 OH        1 <0>       -0.62632
     10 O2          0.7735    0.3138    1.7063 OS        1 <0>       -0.41023
     11 H1          1.6626    1.8639    3.6823 HC        1 <0>        0.04459
     12 H2          0.1770    2.5633    2.9954 HC        1 <0>        0.04459
     13 H3          0.1415    1.8567    4.6062 HC        1 <0>        0.04459
     14 H4          1.0931    0.4125   -2.8875 HC        1 <0>        0.03669
     15 H5         -0.1452   -0.8370   -3.0746 HC        1 <0>        0.03669
     16 H6         -0.5751    0.8717   -3.2520 HC        1 <0>        0.03669
     17 H7         -2.0206   -0.0654    0.0939 HC        1 <0>        0.03669
     18 H8         -1.9669   -1.1188   -1.3263 HC        1 <0>        0.03669
     19 H9         -2.4089    0.5771   -1.5107 HC        1 <0>        0.03669
     20 H10        -0.2267    1.8141    0.3598 HC        1 <0>        0.03669
     21 H11         1.0101    1.9993   -0.8991 HC        1 <0>        0.03669
     22 H12        -0.6806    2.3901   -1.2376 HC        1 <0>        0.03669
     23 H13         1.7022   -0.5005   -0.6425 HC        1 <0>        0.05414
     24 H14         0.5196   -1.7607   -0.9086 HC        1 <0>        0.05414
     25 H15        -0.8692    0.2963    2.9386 H1        1 <0>        0.03226
     26 H16         0.6189   -0.4076    3.6229 H1        1 <0>        0.03226
     27 H17        -0.5406   -1.2556    1.3044 H2        1 <0>        0.03473
     28 H18         1.1468   -2.7605    1.0118 HO        1 <0>        0.40752
@<TRIPOS>BOND
     1    1    6 1
     2    2    8 1
     3    3    8 1
     4    4    8 1
     5    5    7 1
     6    5    8 1
     7    6   10 1
     8    7    9 1
     9    7   10 1
    10    1   11 1
    11    1   12 1
    12    1   13 1
    13    2   14 1
    14    2   15 1
    15    2   16 1
    16    3   17 1
    17    3   18 1
    18    3   19 1
    19    4   20 1
    20    4   21 1
    21    4   22 1
    22    5   23 1
    23    5   24 1
    24    6   25 1
    25    6   26 1
    26    7   27 1
    27    9   28 1
@<TRIPOS>SUBSTRUCTURE
     1 <0>         1 GROUP 0 A     ****
