@<TRIPOS>MOLECULE
AlkEthOH_c206
   24    23     1     0     0
SMALL
USER_CHARGES

@<TRIPOS>ATOM
      1 C1         -1.8363   -0.4540   -0.7643 CT        1 <0>       -0.12847
      2 C2         -2.2467   -0.2574    1.6967 CT        1 <0>       -0.12847
      3 C3          0.1008   -0.6656    0.8882 CT        1 <0>       -0.09470
      4 C4          2.1977    1.2723   -1.4572 CT        1 <0>        0.33735
      5 C5          1.2240   -0.4564   -0.1408 CT        1 <0>        0.33724
      6 C6         -1.2479    0.0161    0.5666 CT        1 <0>        0.15790
      7 O1          1.3123    1.4369   -2.5557 OH        1 <0>       -0.62979
      8 O2          2.3714   -1.2062    0.2618 OH        1 <0>       -0.63092
      9 O3         -1.0726    1.4310    0.4791 OH        1 <0>       -0.57809
     10 O4          1.5234    0.9345   -0.2496 OS        1 <0>       -0.43676
     11 H1         -1.1457   -0.2724   -1.5947 HC        1 <0>        0.04452
     12 H2         -2.7458    0.1086   -1.0063 HC        1 <0>        0.04452
     13 H3         -2.0876   -1.5192   -0.7403 HC        1 <0>        0.04452
     14 H4         -1.8451    0.0722    2.6618 HC        1 <0>        0.04452
     15 H5         -3.2001    0.2526    1.5245 HC        1 <0>        0.04452
     16 H6         -2.4413   -1.3316    1.7953 HC        1 <0>        0.04452
     17 H7          0.4595   -0.2800    1.8530 HC        1 <0>        0.06683
     18 H8         -0.0509   -1.7441    1.0272 HC        1 <0>        0.06683
     19 H9          2.6889    2.2356   -1.2924 H2        1 <0>        0.04143
     20 H10         2.9759    0.5413   -1.7042 H2        1 <0>        0.04143
     21 H11         0.9105   -0.8505   -1.1126 H2        1 <0>        0.09760
     22 H12         1.8528    1.6640   -3.3312 HO        1 <0>        0.40939
     23 H13         2.1224   -2.1448    0.3026 HO        1 <0>        0.40832
     24 H14        -1.9517    1.8057    0.3193 HO        1 <0>        0.39576
@<TRIPOS>BOND
     1    1    6 1
     2    2    6 1
     3    3    5 1
     4    3    6 1
     5    4    7 1
     6    4   10 1
     7    5    8 1
     8    5   10 1
     9    6    9 1
    10    1   11 1
    11    1   12 1
    12    1   13 1
    13    2   14 1
    14    2   15 1
    15    2   16 1
    16    3   17 1
    17    3   18 1
    18    4   19 1
    19    4   20 1
    20    5   21 1
    21    7   22 1
    22    8   23 1
    23    9   24 1
@<TRIPOS>SUBSTRUCTURE
     1 <0>         1 GROUP 0 A     ****
