@<TRIPOS>MOLECULE
AlkEthOH_c761
   17    16     1     0     0
SMALL
USER_CHARGES

@<TRIPOS>ATOM
      1 C1          0.3969    0.9248    1.2185 CT        1 <0>       -0.11142
      2 C2          1.8414   -0.8873   -0.8859 CT        1 <0>        0.13182
      3 C3         -1.6058   -0.1369    0.1735 CT        1 <0>        0.11284
      4 C4         -0.1267    0.2159   -0.0329 CT        1 <0>        0.30846
      5 O1         -2.0941   -0.8225   -0.9765 OH        1 <0>       -0.60050
      6 O2         -0.0154    1.1237   -1.1304 OH        1 <0>       -0.61480
      7 O3          0.5706   -1.0157   -0.2648 OS        1 <0>       -0.46528
      8 H1          1.4528    1.1946    1.1117 HC        1 <0>        0.05368
      9 H2          0.2751    0.2967    2.1080 HC        1 <0>        0.05368
     10 H3         -0.1636    1.8449    1.4168 HC        1 <0>        0.05368
     11 H4          2.2856   -1.8771   -1.0164 H1        1 <0>        0.03591
     12 H5          2.4900   -0.2641   -0.2651 H1        1 <0>        0.03591
     13 H6          1.7134   -0.4160   -1.8632 H1        1 <0>        0.03591
     14 H7         -1.7363   -0.7984    1.0363 H1        1 <0>        0.06384
     15 H8         -2.2131    0.7649    0.3036 H1        1 <0>        0.06384
     16 H9         -3.0265   -1.0245   -0.8025 HO        1 <0>        0.41612
     17 H10        -0.5506    1.9090   -0.9261 HO        1 <0>        0.42631
@<TRIPOS>BOND
     1    1    4 1
     2    2    7 1
     3    3    4 1
     4    3    5 1
     5    4    6 1
     6    4    7 1
     7    1    8 1
     8    1    9 1
     9    1   10 1
    10    2   11 1
    11    2   12 1
    12    2   13 1
    13    3   14 1
    14    3   15 1
    15    5   16 1
    16    6   17 1
@<TRIPOS>SUBSTRUCTURE
     1 <0>         1 GROUP 0 A     ****
