@<TRIPOS>MOLECULE
AlkEthOH_c724
   20    19     1     0     0
SMALL
USER_CHARGES

@<TRIPOS>ATOM
      1 C1          0.1367   -1.0705   -0.1905 CT        1 <0>       -0.12289
      2 C2         -1.1371   -1.5907    1.9476 CT        1 <0>       -0.10679
      3 C3         -0.0858   -2.2350    2.8424 CT        1 <0>        0.13310
      4 C4         -0.8138   -3.3762    0.1241 CT        1 <0>        0.14295
      5 C5         -0.9962   -1.8848    0.4420 CT        1 <0>        0.11403
      6 O1         -0.3380   -1.8483    4.1884 OH        1 <0>       -0.60397
      7 O2         -1.8785   -4.1362    0.6845 OH        1 <0>       -0.59762
      8 O3         -2.2231   -1.4512   -0.1642 OH        1 <0>       -0.60828
      9 H1          0.2242   -1.2907   -1.2610 HC        1 <0>        0.04562
     10 H2         -0.0659    0.0037   -0.1132 HC        1 <0>        0.04562
     11 H3          1.1037   -1.2777    0.2776 HC        1 <0>        0.04562
     12 H4         -2.1364   -1.8879    2.2951 HC        1 <0>        0.06266
     13 H5         -1.1263   -0.5032    2.1090 HC        1 <0>        0.06266
     14 H6          0.9220   -1.9033    2.5779 H1        1 <0>        0.03145
     15 H7         -0.1308   -3.3264    2.7893 H1        1 <0>        0.03145
     16 H8         -0.8249   -3.5458   -0.9583 H1        1 <0>        0.05286
     17 H9          0.1298   -3.7582    0.5269 H1        1 <0>        0.05286
     18 H10         0.3446   -2.2722    4.7325 HO        1 <0>        0.40105
     19 H11        -1.7105   -5.0634    0.4528 HO        1 <0>        0.41213
     20 H12        -2.2980   -0.5076    0.0328 HO        1 <0>        0.40549
@<TRIPOS>BOND
     1    1    5 1
     2    2    3 1
     3    2    5 1
     4    3    6 1
     5    4    5 1
     6    4    7 1
     7    5    8 1
     8    1    9 1
     9    1   10 1
    10    1   11 1
    11    2   12 1
    12    2   13 1
    13    3   14 1
    14    3   15 1
    15    4   16 1
    16    4   17 1
    17    6   18 1
    18    7   19 1
    19    8   20 1
@<TRIPOS>SUBSTRUCTURE
     1 <0>         1 GROUP 0 A     ****
