@<TRIPOS>MOLECULE
AlkEthOH_c816
   26    25     1     0     0
SMALL
USER_CHARGES

@<TRIPOS>ATOM
      1 C1          0.1725   -2.8985    1.7680 CT        1 <0>       -0.12085
      2 C2          1.0028    0.0599   -1.9076 CT        1 <0>       -0.08666
      3 C3         -1.4501    0.4914   -1.6396 CT        1 <0>       -0.08666
      4 C4          0.1876    2.3644   -1.3720 CT        1 <0>       -0.08666
      5 C5          0.5365   -1.4249    1.6899 CT        1 <0>        0.33114
      6 C6          0.0560    0.5291    0.3964 CT        1 <0>        0.33896
      7 C7         -0.0488    0.8628   -1.1189 CT        1 <0>       -0.03317
      8 O1          1.9484   -1.3415    1.5297 OH        1 <0>       -0.62787
      9 O2         -0.8953    1.3113    1.1169 OH        1 <0>       -0.61060
     10 O3         -0.1714   -0.8712    0.5818 OS        1 <0>       -0.47845
     11 H1          0.4534   -3.4156    0.8432 HC        1 <0>        0.05622
     12 H2         -0.9062   -3.0290    1.9014 HC        1 <0>        0.05622
     13 H3          0.7007   -3.3900    2.5912 HC        1 <0>        0.05622
     14 H4          2.0174    0.2958   -1.5667 HC        1 <0>        0.04034
     15 H5          0.9508    0.2889   -2.9778 HC        1 <0>        0.04034
     16 H6          0.8601   -1.0197   -1.7885 HC        1 <0>        0.04034
     17 H7         -2.2302    1.0429   -1.1025 HC        1 <0>        0.04034
     18 H8         -1.6583   -0.5768   -1.5137 HC        1 <0>        0.04034
     19 H9         -1.5493    0.7288   -2.7048 HC        1 <0>        0.04034
     20 H10        -0.5377    2.9817   -0.8309 HC        1 <0>        0.04034
     21 H11         1.1877    2.6659   -1.0400 HC        1 <0>        0.04034
     22 H12         0.1077    2.6097   -2.4367 HC        1 <0>        0.04034
     23 H13         0.2444   -0.9358    2.6262 H2        1 <0>        0.06420
     24 H14         1.0616    0.7951    0.7465 H2        1 <0>        0.05170
     25 H15         2.3529   -1.7674    2.3043 HO        1 <0>        0.41330
     26 H16        -0.8062    1.0816    2.0572 HO        1 <0>        0.39990
@<TRIPOS>BOND
     1    1    5 1
     2    2    7 1
     3    3    7 1
     4    4    7 1
     5    5    8 1
     6    5   10 1
     7    6    7 1
     8    6    9 1
     9    6   10 1
    10    1   11 1
    11    1   12 1
    12    1   13 1
    13    2   14 1
    14    2   15 1
    15    2   16 1
    16    3   17 1
    17    3   18 1
    18    3   19 1
    19    4   20 1
    20    4   21 1
    21    4   22 1
    22    5   23 1
    23    6   24 1
    24    8   25 1
    25    9   26 1
@<TRIPOS>SUBSTRUCTURE
     1 <0>         1 GROUP 0 A     ****
