@<TRIPOS>MOLECULE
AlkEthOH_c790
   20    19     1     0     0
SMALL
USER_CHARGES

@<TRIPOS>ATOM
      1 C1         -0.4238    0.8108    0.6004 CT        1 <0>       -0.08695
      2 C2         -0.8428   -3.0378    2.2503 CT        1 <0>        0.11548
      3 C3         -0.8331   -0.7088    2.5635 CT        1 <0>        0.09407
      4 C4         -0.1986    1.7810    4.1215 CT        1 <0>        0.32602
      5 C5         -0.1831    0.5832    2.0850 CT        1 <0>        0.14221
      6 O1          1.1840    2.1062    4.1142 OH        1 <0>       -0.62617
      7 O2         -0.2592   -1.8039    1.8578 OS        1 <0>       -0.41553
      8 O3         -0.7516    1.6685    2.8163 OS        1 <0>       -0.41218
      9 H1         -1.4974    0.8254    0.3837 HC        1 <0>        0.04939
     10 H2          0.0100    1.7589    0.2680 HC        1 <0>        0.04939
     11 H3          0.0060   -0.0016    0.0041 HC        1 <0>        0.04939
     12 H4         -0.3805   -3.8548    1.6909 H1        1 <0>        0.03333
     13 H5         -1.9180   -3.0116    2.0557 H1        1 <0>        0.03333
     14 H6         -0.6715   -3.1882    3.3188 H1        1 <0>        0.03333
     15 H7         -0.6575   -0.8687    3.6324 H1        1 <0>        0.02989
     16 H8         -1.9097   -0.7047    2.3666 H1        1 <0>        0.02989
     17 H9         -0.3705    0.8713    4.7084 H2        1 <0>        0.03537
     18 H10        -0.7218    2.6019    4.6204 H2        1 <0>        0.03537
     19 H11         0.8907    0.5686    2.3018 H1        1 <0>        0.07364
     20 H12         1.4715    2.1613    5.0412 HO        1 <0>        0.41073
@<TRIPOS>BOND
     1    1    5 1
     2    2    7 1
     3    3    5 1
     4    3    7 1
     5    4    6 1
     6    4    8 1
     7    5    8 1
     8    1    9 1
     9    1   10 1
    10    1   11 1
    11    2   12 1
    12    2   13 1
    13    2   14 1
    14    3   15 1
    15    3   16 1
    16    4   17 1
    17    4   18 1
    18    5   19 1
    19    6   20 1
@<TRIPOS>SUBSTRUCTURE
     1 <0>         1 GROUP 0 A     ****
