@<TRIPOS>MOLECULE
AlkEthOH_c811
   18    17     1     0     0
SMALL
USER_CHARGES

@<TRIPOS>ATOM
      1 C1         -0.4956   -1.2446    1.2676 CT        1 <0>       -0.11311
      2 C2          2.3207   -0.2066   -0.8462 CT        1 <0>        0.13163
      3 C3         -1.6819    0.6186   -0.9031 CT        1 <0>        0.34827
      4 C4          0.2155   -0.3009    0.2882 CT        1 <0>        0.53323
      5 O1         -1.3541    1.9673   -1.2060 OH        1 <0>       -0.60675
      6 O2          0.3995    0.9733    0.9122 OH        1 <0>       -0.67127
      7 O3          1.4907   -0.9326    0.0515 OS        1 <0>       -0.45293
      8 O4         -0.5477   -0.2402   -0.9277 OS        1 <0>       -0.46746
      9 H1         -0.6503   -2.2306    0.8156 HC        1 <0>        0.06206
     10 H2         -1.4718   -0.8589    1.5766 HC        1 <0>        0.06206
     11 H3          0.1015   -1.3822    2.1766 HC        1 <0>        0.06206
     12 H4          3.2660   -0.7381   -0.9803 H1        1 <0>        0.04453
     13 H5          2.5061    0.7929   -0.4449 H1        1 <0>        0.04453
     14 H6          1.8131   -0.1218   -1.8100 H1        1 <0>        0.04453
     15 H7         -2.2270    0.5686    0.0442 H2        1 <0>        0.06027
     16 H8         -2.3601    0.2729   -1.6885 H2        1 <0>        0.06027
     17 H9         -2.1810    2.4771   -1.1665 HO        1 <0>        0.42103
     18 H10         0.9399    0.8616    1.7116 HO        1 <0>        0.43705
@<TRIPOS>BOND
     1    1    4 1
     2    2    7 1
     3    3    5 1
     4    3    8 1
     5    4    6 1
     6    4    7 1
     7    4    8 1
     8    1    9 1
     9    1   10 1
    10    1   11 1
    11    2   12 1
    12    2   13 1
    13    2   14 1
    14    3   15 1
    15    3   16 1
    16    5   17 1
    17    6   18 1
@<TRIPOS>SUBSTRUCTURE
     1 <0>         1 GROUP 0 A     ****
