@<TRIPOS>MOLECULE
AlkEthOH_c464
   21    20     1     0     0
SMALL
USER_CHARGES

@<TRIPOS>ATOM
      1 C1         -0.7817    0.3501   -0.5480 CT        1 <0>       -0.09134
      2 C2         -1.9033    0.8078   -2.7370 CT        1 <0>       -0.09134
      3 C3          1.9188    0.6451   -1.9879 CT        1 <0>       -0.08419
      4 C4          0.5833    1.1215   -2.5608 CT        1 <0>       -0.07322
      5 C5          3.0766    1.5026   -2.4820 CT        1 <0>        0.13196
      6 C6         -0.6231    0.3007   -2.0684 CT        1 <0>       -0.06568
      7 O1          4.2831    1.0216   -1.9054 OH        1 <0>       -0.60264
      8 H1         -0.9267    1.3774   -0.1969 HC        1 <0>        0.03394
      9 H2          0.0956   -0.0634   -0.0416 HC        1 <0>        0.03394
     10 H3         -1.6471   -0.2408   -0.2287 HC        1 <0>        0.03394
     11 H4         -2.0930    1.8535   -2.4728 HC        1 <0>        0.03394
     12 H5         -2.7731    0.2169   -2.4303 HC        1 <0>        0.03394
     13 H6         -1.8222    0.7505   -3.8276 HC        1 <0>        0.03394
     14 H7          1.9040    0.6711   -0.8925 HC        1 <0>        0.05572
     15 H8          2.0993   -0.4012   -2.2638 HC        1 <0>        0.05572
     16 H9          0.6293    1.0593   -3.6558 HC        1 <0>        0.03837
     17 H10         0.4379    2.1805   -2.3125 HC        1 <0>        0.03837
     18 H11         2.9418    2.5479   -2.1862 H1        1 <0>        0.01951
     19 H12         3.1664    1.4488   -3.5716 H1        1 <0>        0.01951
     20 H13        -0.4814   -0.7462   -2.3653 HC        1 <0>        0.04727
     21 H14         4.9983    1.5872   -2.2391 HO        1 <0>        0.39834
@<TRIPOS>BOND
     1    1    6 1
     2    2    6 1
     3    3    4 1
     4    3    5 1
     5    4    6 1
     6    5    7 1
     7    1    8 1
     8    1    9 1
     9    1   10 1
    10    2   11 1
    11    2   12 1
    12    2   13 1
    13    3   14 1
    14    3   15 1
    15    4   16 1
    16    4   17 1
    17    5   18 1
    18    5   19 1
    19    6   20 1
    20    7   21 1
@<TRIPOS>SUBSTRUCTURE
     1 <0>         1 GROUP 0 A     ****
