@<TRIPOS>MOLECULE
AlkEthOH_c457
   32    31     1     0     0
SMALL
USER_CHARGES

@<TRIPOS>ATOM
      1 C1         -0.9555    3.1376   -0.4621 CT        1 <0>       -0.09051
      2 C2          1.2970    3.9048    0.3112 CT        1 <0>       -0.09051
      3 C3         -0.7403   -2.5546    1.2251 CT        1 <0>       -0.08634
      4 C4          0.4951   -3.5636   -0.6975 CT        1 <0>       -0.08634
      5 C5         -1.5308   -2.1453   -1.1093 CT        1 <0>       -0.08634
      6 C6         -0.0745    0.2541    0.1609 CT        1 <0>       -0.07863
      7 C7          0.8872    1.4420    0.0309 CT        1 <0>       -0.07285
      8 C8          0.6106   -1.0543   -0.2573 CT        1 <0>       -0.06789
      9 C9          0.2509    2.7918    0.4119 CT        1 <0>       -0.06668
     10 C10        -0.2831   -2.3231   -0.2287 CT        1 <0>       -0.05492
     11 H1         -0.6658    3.1996   -1.5167 HC        1 <0>        0.03300
     12 H2         -1.7415    2.3804   -0.3719 HC        1 <0>        0.03300
     13 H3         -1.3819    4.1071   -0.1876 HC        1 <0>        0.03300
     14 H4          1.6675    3.9994   -0.7150 HC        1 <0>        0.03300
     15 H5          2.1561    3.6916    0.9561 HC        1 <0>        0.03300
     16 H6          0.8790    4.8717    0.6117 HC        1 <0>        0.03300
     17 H7         -1.3018   -1.6937    1.6053 HC        1 <0>        0.03366
     18 H8         -1.3874   -3.4357    1.3010 HC        1 <0>        0.03366
     19 H9          0.1154   -2.7131    1.8912 HC        1 <0>        0.03366
     20 H10         0.8471   -3.4571   -1.7287 HC        1 <0>        0.03366
     21 H11        -0.1355   -4.4596   -0.6638 HC        1 <0>        0.03366
     22 H12         1.3670   -3.7473   -0.0600 HC        1 <0>        0.03366
     23 H13        -1.2546   -1.9773   -2.1562 HC        1 <0>        0.03366
     24 H14        -2.1848   -3.0225   -1.0694 HC        1 <0>        0.03366
     25 H15        -2.1253   -1.2851   -0.7806 HC        1 <0>        0.03366
     26 H16        -0.4172    0.1855    1.1986 HC        1 <0>        0.04147
     27 H17        -0.9520    0.4259   -0.4691 HC        1 <0>        0.04147
     28 H18         1.7537    1.2653    0.6812 HC        1 <0>        0.03832
     29 H19         1.2701    1.4893   -0.9965 HC        1 <0>        0.03832
     30 H20         1.4781   -1.2169    0.3967 HC        1 <0>        0.03794
     31 H21         1.0137   -0.9261   -1.2712 HC        1 <0>        0.03794
     32 H22        -0.0848    2.7405    1.4555 HC        1 <0>        0.04461
@<TRIPOS>BOND
     1    1    9 1
     2    2    9 1
     3    3   10 1
     4    4   10 1
     5    5   10 1
     6    6    7 1
     7    6    8 1
     8    7    9 1
     9    8   10 1
    10    1   11 1
    11    1   12 1
    12    1   13 1
    13    2   14 1
    14    2   15 1
    15    2   16 1
    16    3   17 1
    17    3   18 1
    18    3   19 1
    19    4   20 1
    20    4   21 1
    21    4   22 1
    22    5   23 1
    23    5   24 1
    24    5   25 1
    25    6   26 1
    26    6   27 1
    27    7   28 1
    28    7   29 1
    29    8   30 1
    30    8   31 1
    31    9   32 1
@<TRIPOS>SUBSTRUCTURE
     1 <0>         1 GROUP 0 A     ****
