@<TRIPOS>MOLECULE
AlkEthOH_c677
   23    22     1     0     0
SMALL
USER_CHARGES

@<TRIPOS>ATOM
      1 C1         -0.8825    0.3039    0.4723 CT        1 <0>       -0.13003
      2 C2         -1.8946    3.7055   -3.1110 CT        1 <0>       -0.12372
      3 C3         -1.4311    2.0113   -1.3010 CT        1 <0>       -0.06578
      4 C4         -4.7677    3.0924   -2.3790 CT        1 <0>        0.32785
      5 C5         -1.9563    0.8336   -0.4695 CT        1 <0>        0.14020
      6 C6         -2.4683    2.5565   -2.2917 CT        1 <0>        0.13901
      7 O1         -5.2014    1.8170   -2.8289 OH        1 <0>       -0.62051
      8 O2         -2.3551   -0.2157   -1.3470 OH        1 <0>       -0.59925
      9 O3         -3.6005    3.0297   -1.5678 OS        1 <0>       -0.41760
     10 H1          0.0092   -0.0116   -0.0779 HC        1 <0>        0.04021
     11 H2         -1.2559   -0.5454    1.0550 HC        1 <0>        0.04021
     12 H3         -0.5909    1.0753    1.1933 HC        1 <0>        0.04021
     13 H4         -1.5520    4.5113   -2.4530 HC        1 <0>        0.03951
     14 H5         -1.0222    3.3788   -3.6878 HC        1 <0>        0.03951
     15 H6         -2.6398    4.1135   -3.8005 HC        1 <0>        0.03951
     16 H7         -1.1259    2.8133   -0.6171 HC        1 <0>        0.05325
     17 H8         -0.5445    1.6922   -1.8635 HC        1 <0>        0.05325
     18 H9         -4.6253    3.7664   -3.2316 H2        1 <0>        0.03381
     19 H10        -5.5677    3.5063   -1.7584 H2        1 <0>        0.03381
     20 H11        -2.8323    1.1397    0.1129 H1        1 <0>        0.05180
     21 H12        -2.8051    1.7614   -2.9658 H1        1 <0>        0.08072
     22 H13        -5.9965    1.9579   -3.3703 HO        1 <0>        0.40670
     23 H14        -2.6999   -0.9285   -0.7871 HO        1 <0>        0.39733
@<TRIPOS>BOND
     1    1    5 1
     2    2    6 1
     3    3    5 1
     4    3    6 1
     5    4    7 1
     6    4    9 1
     7    5    8 1
     8    6    9 1
     9    1   10 1
    10    1   11 1
    11    1   12 1
    12    2   13 1
    13    2   14 1
    14    2   15 1
    15    3   16 1
    16    3   17 1
    17    4   18 1
    18    4   19 1
    19    5   20 1
    20    6   21 1
    21    7   22 1
    22    8   23 1
@<TRIPOS>SUBSTRUCTURE
     1 <0>         1 GROUP 0 A     ****
