@<TRIPOS>MOLECULE
AlkEthOH_c23
   17    16     1     0     0
SMALL
USER_CHARGES

@<TRIPOS>ATOM
      1 C1          0.7769   -0.0127   -0.7752 CT        1 <0>       -0.08844
      2 C2          0.3988    0.9317   -1.9043 CT        1 <0>        0.13413
      3 C3          0.9970   -1.4335   -1.2704 CT        1 <0>        0.13160
      4 C4          1.5851   -3.6184   -0.5902 CT        1 <0>        0.32754
      5 O1          0.2241    2.2375   -1.3720 OH        1 <0>       -0.59886
      6 O2          2.6874   -3.7586   -1.4749 OH        1 <0>       -0.62734
      7 O3          1.3656   -2.2715   -0.1832 OS        1 <0>       -0.41173
      8 H1          1.6787    0.3512   -0.2665 HC        1 <0>        0.06981
      9 H2         -0.0006    0.0001   -0.0006 HC        1 <0>        0.06981
     10 H3          1.1863    0.9678   -2.6637 H1        1 <0>        0.02059
     11 H4         -0.5382    0.6201   -2.3769 H1        1 <0>        0.02059
     12 H5          1.8025   -1.4679   -2.0104 H1        1 <0>        0.03442
     13 H6          0.0907   -1.8404   -1.7302 H1        1 <0>        0.03442
     14 H7          0.6828   -4.0505   -1.0382 H2        1 <0>        0.03715
     15 H8          1.8172   -4.1943    0.3103 H2        1 <0>        0.03715
     16 H9         -0.0157    2.8138   -2.1158 HO        1 <0>        0.39918
     17 H10         2.7601   -4.7022   -1.6967 HO        1 <0>        0.40998
@<TRIPOS>BOND
     1    1    2 1
     2    1    3 1
     3    2    5 1
     4    3    7 1
     5    4    6 1
     6    4    7 1
     7    1    8 1
     8    1    9 1
     9    2   10 1
    10    2   11 1
    11    3   12 1
    12    3   13 1
    13    4   14 1
    14    4   15 1
    15    5   16 1
    16    6   17 1
@<TRIPOS>SUBSTRUCTURE
     1 <0>         1 GROUP 0 A     ****
