@<TRIPOS>MOLECULE
AlkEthOH_c923
   30    29     1     0     0
SMALL
USER_CHARGES

@<TRIPOS>ATOM
      1 C1          0.6001   -2.0554   -2.1487 CT        1 <0>       -0.09211
      2 C2         -0.3245    1.6290   -1.2419 CT        1 <0>       -0.08458
      3 C3          1.8019    0.4193   -0.7141 CT        1 <0>       -0.08458
      4 C4         -1.3856   -0.6431    2.5791 CT        1 <0>       -0.12527
      5 C5          0.3935    1.0625    2.2181 CT        1 <0>       -0.12527
      6 C6          0.0681   -0.6280   -2.2186 CT        1 <0>       -0.07708
      7 C7         -0.3982   -0.4532    0.2778 CT        1 <0>       -0.05471
      8 C8          0.2866    0.2479   -0.9406 CT        1 <0>       -0.04069
      9 C9         -0.7751    0.3338    1.5602 CT        1 <0>        0.15508
     10 O1         -1.7800    1.3057    1.2667 OH        1 <0>       -0.59592
     11 H1          1.6701   -2.0779   -1.9246 HC        1 <0>        0.03201
     12 H2          0.0719   -2.6486   -1.3970 HC        1 <0>        0.03201
     13 H3          0.4566   -2.5502   -3.1153 HC        1 <0>        0.03201
     14 H4         -1.4045    1.5554   -1.4104 HC        1 <0>        0.03531
     15 H5          0.1191    2.0668   -2.1440 HC        1 <0>        0.03531
     16 H6         -0.1513    2.3414   -0.4300 HC        1 <0>        0.03531
     17 H7          2.2994   -0.5279   -0.4945 HC        1 <0>        0.03531
     18 H8          2.2951    0.8557   -1.5887 HC        1 <0>        0.03531
     19 H9          1.9981    1.0774    0.1407 HC        1 <0>        0.03531
     20 H10        -2.2316   -1.1929    2.1536 HC        1 <0>        0.04177
     21 H11        -0.6385   -1.3671    2.9244 HC        1 <0>        0.04177
     22 H12        -1.7321   -0.1117    3.4730 HC        1 <0>        0.04177
     23 H13         0.8531    1.7693    1.5166 HC        1 <0>        0.04177
     24 H14         0.0754    1.6236    3.1023 HC        1 <0>        0.04177
     25 H15         1.1961    0.3730    2.4931 HC        1 <0>        0.04177
     26 H16        -1.0054   -0.6751   -2.4455 HC        1 <0>        0.03884
     27 H17         0.5370   -0.1362   -3.0813 HC        1 <0>        0.03884
     28 H18        -1.3334   -0.8933   -0.0994 HC        1 <0>        0.04701
     29 H19         0.2319   -1.3005    0.5808 HC        1 <0>        0.04701
     30 H20        -1.9942    1.7390    2.1063 HO        1 <0>        0.39492
@<TRIPOS>BOND
     1    1    6 1
     2    2    8 1
     3    3    8 1
     4    4    9 1
     5    5    9 1
     6    6    8 1
     7    7    8 1
     8    7    9 1
     9    9   10 1
    10    1   11 1
    11    1   12 1
    12    1   13 1
    13    2   14 1
    14    2   15 1
    15    2   16 1
    16    3   17 1
    17    3   18 1
    18    3   19 1
    19    4   20 1
    20    4   21 1
    21    4   22 1
    22    5   23 1
    23    5   24 1
    24    5   25 1
    25    6   26 1
    26    6   27 1
    27    7   28 1
    28    7   29 1
    29   10   30 1
@<TRIPOS>SUBSTRUCTURE
     1 <0>         1 GROUP 0 A     ****
