@<TRIPOS>MOLECULE
AlkEthOH_c253
   17    16     1     0     0
SMALL
USER_CHARGES

@<TRIPOS>ATOM
      1 C1         -0.7805   -0.6851   -1.1703 CT        1 <0>       -0.13375
      2 C2         -1.1884    1.6028   -0.2642 CT        1 <0>       -0.13375
      3 C3          1.8018   -0.5005    0.2928 CT        1 <0>        0.33617
      4 C4         -0.4779    0.2712   -0.0145 CT        1 <0>        0.34871
      5 O1          1.5912   -1.1671    1.5284 OH        1 <0>       -0.59388
      6 O2         -1.0130   -0.2429    1.2045 OH        1 <0>       -0.58682
      7 O3          0.9154    0.5928    0.0811 OS        1 <0>       -0.40436
      8 H1         -0.2880   -1.6528   -1.0280 HC        1 <0>        0.05097
      9 H2         -1.8536   -0.8975   -1.2349 HC        1 <0>        0.05097
     10 H3         -0.4369   -0.2756   -2.1258 HC        1 <0>        0.05097
     11 H4         -0.9846    2.3041    0.5538 HC        1 <0>        0.05097
     12 H5         -2.2752    1.4750   -0.3150 HC        1 <0>        0.05097
     13 H6         -0.8389    2.0751   -1.1887 HC        1 <0>        0.05097
     14 H7          1.7354   -1.2266   -0.5219 H2        1 <0>        0.03132
     15 H8          2.8240   -0.1080    0.2865 H2        1 <0>        0.03132
     16 H9          2.2388   -1.8905    1.5786 HO        1 <0>        0.39993
     17 H10        -1.9746   -0.3348    1.0962 HO        1 <0>        0.39929
@<TRIPOS>BOND
     1    1    4 1
     2    2    4 1
     3    3    5 1
     4    3    7 1
     5    4    6 1
     6    4    7 1
     7    1    8 1
     8    1    9 1
     9    1   10 1
    10    2   11 1
    11    2   12 1
    12    2   13 1
    13    3   14 1
    14    3   15 1
    15    5   16 1
    16    6   17 1
@<TRIPOS>SUBSTRUCTURE
     1 <0>         1 GROUP 0 A     ****
