@<TRIPOS>MOLECULE
AlkEthOH_c432
   25    24     1     0     0
SMALL
USER_CHARGES

@<TRIPOS>ATOM
      1 C1         -1.0223    0.4225   -0.1632 CT        1 <0>       -0.09144
      2 C2         -2.7720    0.9158   -1.8831 CT        1 <0>       -0.09144
      3 C3          1.5122   -0.0674   -2.8191 CT        1 <0>       -0.09029
      4 C4         -0.3932    1.5685   -2.3523 CT        1 <0>       -0.10640
      5 C5          1.8350    3.5432   -2.3391 CT        1 <0>        0.32697
      6 C6         -1.3046    0.5383   -1.6612 CT        1 <0>       -0.06418
      7 C7          1.1132    1.2947   -2.2678 CT        1 <0>        0.14175
      8 O1          2.6274    3.4834   -1.1619 OH        1 <0>       -0.62748
      9 O2          1.7735    2.3047   -3.0334 OS        1 <0>       -0.41519
     10 H1         -1.1649    1.3831    0.3430 HC        1 <0>        0.03425
     11 H2          0.0020    0.0863    0.0240 HC        1 <0>        0.03425
     12 H3         -1.6927   -0.3077    0.3030 HC        1 <0>        0.03425
     13 H4         -2.9924    1.8954   -1.4459 HC        1 <0>        0.03425
     14 H5         -3.0023    0.9695   -2.9525 HC        1 <0>        0.03425
     15 H6         -3.4454    0.1814   -1.4280 HC        1 <0>        0.03425
     16 H7          1.1710   -0.1858   -3.8533 HC        1 <0>        0.04556
     17 H8          2.6029   -0.1686   -2.8361 HC        1 <0>        0.04556
     18 H9          1.1054   -0.8851   -2.2179 HC        1 <0>        0.04556
     19 H10        -0.5859    2.5666   -1.9347 HC        1 <0>        0.04486
     20 H11        -0.6765    1.6478   -3.4111 HC        1 <0>        0.04486
     21 H12         0.8333    3.9203   -2.1026 H2        1 <0>        0.03463
     22 H13         2.3099    4.2621   -3.0131 H2        1 <0>        0.03463
     23 H14        -1.1481   -0.4456   -2.1188 HC        1 <0>        0.04919
     24 H15         1.4611    1.3970   -1.2349 H1        1 <0>        0.05934
     25 H16         2.6107    4.3677   -0.7585 HO        1 <0>        0.40801
@<TRIPOS>BOND
     1    1    6 1
     2    2    6 1
     3    3    7 1
     4    4    6 1
     5    4    7 1
     6    5    8 1
     7    5    9 1
     8    7    9 1
     9    1   10 1
    10    1   11 1
    11    1   12 1
    12    2   13 1
    13    2   14 1
    14    2   15 1
    15    3   16 1
    16    3   17 1
    17    3   18 1
    18    4   19 1
    19    4   20 1
    20    5   21 1
    21    5   22 1
    22    6   23 1
    23    7   24 1
    24    8   25 1
@<TRIPOS>SUBSTRUCTURE
     1 <0>         1 GROUP 0 A     ****
