@<TRIPOS>MOLECULE
AlkEthOH_c1130
   26    25     1     0     0
SMALL
USER_CHARGES

@<TRIPOS>ATOM
      1 C1          0.7804   -0.2895   -0.7251 CT        1 <0>       -0.09173
      2 C2         -1.5214    4.0579   -5.4658 CT        1 <0>       -0.09076
      3 C3         -0.2003    6.0475   -4.7201 CT        1 <0>       -0.09076
      4 C4          0.5081    0.2764   -2.1097 CT        1 <0>       -0.08023
      5 C5          0.4034    1.8011   -2.0808 CT        1 <0>       -0.07820
      6 C6          0.0953    2.3645   -3.4701 CT        1 <0>       -0.07789
      7 C7          0.0283    3.8945   -3.4455 CT        1 <0>       -0.07369
      8 C8         -0.2088    4.5208   -4.8321 CT        1 <0>       -0.06659
      9 H1          1.7060    0.1205   -0.3087 HC        1 <0>        0.03262
     10 H2         -0.0389   -0.0557   -0.0377 HC        1 <0>        0.03262
     11 H3          0.8826   -1.3781   -0.7739 HC        1 <0>        0.03262
     12 H4         -2.3803    4.3257   -4.8410 HC        1 <0>        0.03296
     13 H5         -1.5321    2.9740   -5.6147 HC        1 <0>        0.03296
     14 H6         -1.6620    4.5202   -6.4489 HC        1 <0>        0.03296
     15 H7         -1.0067    6.3943   -4.0654 HC        1 <0>        0.03296
     16 H8         -0.3322    6.5189   -5.7000 HC        1 <0>        0.03296
     17 H9          0.7459    6.4020   -4.2979 HC        1 <0>        0.03296
     18 H10        -0.4231   -0.1533   -2.4967 HC        1 <0>        0.03728
     19 H11         1.3134   -0.0290   -2.7879 HC        1 <0>        0.03728
     20 H12         1.3444    2.2267   -1.7115 HC        1 <0>        0.03856
     21 H13        -0.3846    2.1021   -1.3798 HC        1 <0>        0.03856
     22 H14        -0.8579    1.9515   -3.8181 HC        1 <0>        0.03972
     23 H15         0.8692    2.0414   -4.1765 HC        1 <0>        0.03972
     24 H16        -0.7625    4.2131   -2.7543 HC        1 <0>        0.03869
     25 H17         0.9727    4.2806   -3.0408 HC        1 <0>        0.03869
     26 H18         0.6146    4.2284   -5.4960 HC        1 <0>        0.04573
@<TRIPOS>BOND
     1    1    4 1
     2    2    8 1
     3    3    8 1
     4    4    5 1
     5    5    6 1
     6    6    7 1
     7    7    8 1
     8    1    9 1
     9    1   10 1
    10    1   11 1
    11    2   12 1
    12    2   13 1
    13    2   14 1
    14    3   15 1
    15    3   16 1
    16    3   17 1
    17    4   18 1
    18    4   19 1
    19    5   20 1
    20    5   21 1
    21    6   22 1
    22    6   23 1
    23    7   24 1
    24    7   25 1
    25    8   26 1
@<TRIPOS>SUBSTRUCTURE
     1 <0>         1 GROUP 0 A     ****
