@<TRIPOS>MOLECULE
AlkEthOH_c182
   29    28     1     0     0
SMALL
USER_CHARGES

@<TRIPOS>ATOM
      1 C1          2.9964   -1.1490   -0.5374 CT        1 <0>       -0.10520
      2 C2          3.5436    1.2710   -0.1457 CT        1 <0>       -0.10520
      3 C3          2.6604   -0.1327    1.7406 CT        1 <0>       -0.10520
      4 C4         -0.4501   -0.9406   -1.1146 CT        1 <0>       -0.13223
      5 C5         -0.6863    0.1610    1.1531 CT        1 <0>       -0.11881
      6 C6         -1.4437    1.3739    0.6201 CT        1 <0>        0.13650
      7 C7          2.6198    0.1155    0.2334 CT        1 <0>        0.18266
      8 C8          0.2868   -0.4894    0.1511 CT        1 <0>        0.36559
      9 O1         -2.3110    1.8764    1.6303 OH        1 <0>       -0.60518
     10 O2          0.8240   -1.6320    0.8267 OH        1 <0>       -0.62037
     11 O3          1.2981    0.4882   -0.1280 OS        1 <0>       -0.43782
     12 H1          2.3356   -1.9807   -0.2681 HC        1 <0>        0.04415
     13 H2          2.9373   -0.9943   -1.6197 HC        1 <0>        0.04415
     14 H3          4.0144   -1.4699   -0.2887 HC        1 <0>        0.04415
     15 H4          3.2770    2.1804    0.4050 HC        1 <0>        0.04415
     16 H5          3.4469    1.5151   -1.2098 HC        1 <0>        0.04415
     17 H6          4.5922    1.0348    0.0620 HC        1 <0>        0.04415
     18 H7          2.3904    0.7742    2.2937 HC        1 <0>        0.04415
     19 H8          1.9758   -0.9343    2.0359 HC        1 <0>        0.04415
     20 H9          3.6724   -0.4023    2.0639 HC        1 <0>        0.04415
     21 H10         0.2408   -1.4032   -1.8278 HC        1 <0>        0.04950
     22 H11        -1.2582   -1.6422   -0.8855 HC        1 <0>        0.04950
     23 H12        -0.9010   -0.0882   -1.6348 HC        1 <0>        0.04950
     24 H13        -0.1268    0.4723    2.0469 HC        1 <0>        0.06280
     25 H14        -1.4011   -0.5859    1.5246 HC        1 <0>        0.06280
     26 H15        -2.0531    1.1208   -0.2520 H1        1 <0>        0.03077
     27 H16        -0.7582    2.1793    0.3408 H1        1 <0>        0.03077
     28 H17        -2.7687    2.6421    1.2485 HO        1 <0>        0.39979
     29 H18         0.0889   -2.2218    1.0633 HO        1 <0>        0.41248
@<TRIPOS>BOND
     1    1    7 1
     2    2    7 1
     3    3    7 1
     4    4    8 1
     5    5    6 1
     6    5    8 1
     7    6    9 1
     8    7   11 1
     9    8   10 1
    10    8   11 1
    11    1   12 1
    12    1   13 1
    13    1   14 1
    14    2   15 1
    15    2   16 1
    16    2   17 1
    17    3   18 1
    18    3   19 1
    19    3   20 1
    20    4   21 1
    21    4   22 1
    22    4   23 1
    23    5   24 1
    24    5   25 1
    25    6   26 1
    26    6   27 1
    27    9   28 1
    28   10   29 1
@<TRIPOS>SUBSTRUCTURE
     1 <0>         1 GROUP 0 A     ****
