@<TRIPOS>MOLECULE
AlkEthOH_c657
   24    23     1     0     0
SMALL
USER_CHARGES

@<TRIPOS>ATOM
      1 C1          1.9658    0.9379   -2.3910 CT        1 <0>       -0.13125
      2 C2         -2.1591   -0.6814   -0.0270 CT        1 <0>       -0.15078
      3 C3         -0.0543    0.1303   -1.1130 CT        1 <0>       -0.09218
      4 C4         -0.8352   -0.0726    2.5268 CT        1 <0>        0.33045
      5 C5          1.4727    0.3236   -1.0860 CT        1 <0>        0.14819
      6 C6         -0.6448   -0.5227    0.1609 CT        1 <0>        0.35468
      7 O1         -0.0940    0.5406    3.5755 OH        1 <0>       -0.57937
      8 O2          1.8310    1.1928   -0.0166 OH        1 <0>       -0.56803
      9 O3         -0.0389   -1.8097    0.2940 OH        1 <0>       -0.62212
     10 O4         -0.3442    0.3456    1.2605 OS        1 <0>       -0.37018
     11 H1          1.4844    1.9012   -2.5849 HC        1 <0>        0.04150
     12 H2          3.0514    1.0841   -2.3696 HC        1 <0>        0.04150
     13 H3          1.7553    0.2694   -3.2329 HC        1 <0>        0.04150
     14 H4         -2.6220   -1.1410    0.8524 HC        1 <0>        0.05017
     15 H5         -2.6362    0.2853   -0.2220 HC        1 <0>        0.05017
     16 H6         -2.3902   -1.3150   -0.8900 HC        1 <0>        0.05017
     17 H7         -0.5269    1.1117   -1.2531 HC        1 <0>        0.06113
     18 H8         -0.3020   -0.4957   -1.9802 HC        1 <0>        0.06113
     19 H9         -0.7196   -1.1543    2.6407 H2        1 <0>        0.02202
     20 H10        -1.8885    0.1956    2.6495 H2        1 <0>        0.02202
     21 H11         1.9753   -0.6364   -0.9266 H1        1 <0>        0.03359
     22 H12        -0.4691    0.2219    4.4139 HO        1 <0>        0.40209
     23 H13         2.7983    1.2651   -0.0300 HO        1 <0>        0.39465
     24 H14        -0.2206   -2.3191   -0.5135 HO        1 <0>        0.40895
@<TRIPOS>BOND
     1    1    5 1
     2    2    6 1
     3    3    5 1
     4    3    6 1
     5    4    7 1
     6    4   10 1
     7    5    8 1
     8    6    9 1
     9    6   10 1
    10    1   11 1
    11    1   12 1
    12    1   13 1
    13    2   14 1
    14    2   15 1
    15    2   16 1
    16    3   17 1
    17    3   18 1
    18    4   19 1
    19    4   20 1
    20    5   21 1
    21    7   22 1
    22    8   23 1
    23    9   24 1
@<TRIPOS>SUBSTRUCTURE
     1 <0>         1 GROUP 0 A     ****
