@<TRIPOS>MOLECULE
AlkEthOH_c40
   23    22     1     0     0
SMALL
USER_CHARGES

@<TRIPOS>ATOM
      1 C1          0.7578   -0.7510    0.2801 CT        1 <0>       -0.12830
      2 C2         -0.2240   -4.2339    3.0238 CT        1 <0>       -0.12624
      3 C3          1.5052   -5.5549    1.7991 CT        1 <0>       -0.12624
      4 C4          0.0767   -1.9933    0.8519 CT        1 <0>        0.11572
      5 C5          1.0657   -3.1569    1.0780 CT        1 <0>        0.15526
      6 C6          0.4411   -4.4556    1.6619 CT        1 <0>        0.12643
      7 O1         -0.9451   -2.3935   -0.0551 OH        1 <0>       -0.56640
      8 O2          2.1125   -2.7231    1.9465 OH        1 <0>       -0.59117
      9 O3         -0.5649   -4.9526    0.7759 OH        1 <0>       -0.56699
     10 H1          1.2474   -0.9790   -0.6730 HC        1 <0>        0.04629
     11 H2          0.0181    0.0304    0.0734 HC        1 <0>        0.04629
     12 H3          1.5008   -0.3398    0.9691 HC        1 <0>        0.04629
     13 H4         -0.9937   -3.4569    2.9815 HC        1 <0>        0.04434
     14 H5         -0.6754   -5.1569    3.4025 HC        1 <0>        0.04434
     15 H6          0.5195   -3.9382    3.7736 HC        1 <0>        0.04434
     16 H7          2.0008   -5.7377    0.8387 HC        1 <0>        0.04434
     17 H8          1.0462   -6.5062    2.0932 HC        1 <0>        0.04434
     18 H9          2.2691   -5.2990    2.5400 HC        1 <0>        0.04434
     19 H10        -0.3948   -1.7114    1.8000 H1        1 <0>        0.02108
     20 H11         1.5144   -3.4154    0.1090 H1        1 <0>        0.09895
     21 H12        -1.5630   -1.6486   -0.1235 HO        1 <0>        0.39296
     22 H13         1.6879   -2.4602    2.7769 HO        1 <0>        0.39655
     23 H14        -0.8837   -5.7807    1.1641 HO        1 <0>        0.39348
@<TRIPOS>BOND
     1    1    4 1
     2    2    6 1
     3    3    6 1
     4    4    5 1
     5    4    7 1
     6    5    6 1
     7    5    8 1
     8    6    9 1
     9    1   10 1
    10    1   11 1
    11    1   12 1
    12    2   13 1
    13    2   14 1
    14    2   15 1
    15    3   16 1
    16    3   17 1
    17    3   18 1
    18    4   19 1
    19    5   20 1
    20    7   21 1
    21    8   22 1
    22    9   23 1
@<TRIPOS>SUBSTRUCTURE
     1 <0>         1 GROUP 0 A     ****
