@<TRIPOS>MOLECULE
AlkEthOH_c286
   21    20     1     0     0
SMALL
USER_CHARGES

@<TRIPOS>ATOM
      1 C1         -0.3691    1.0127   -0.3915 CT        1 <0>       -0.08895
      2 C2         -0.5768    2.4074   -2.4566 CT        1 <0>       -0.08895
      3 C3         -2.7168    0.1117   -2.2705 CT        1 <0>       -0.12188
      4 C4         -0.8108   -1.5054   -2.1829 CT        1 <0>       -0.12188
      5 C5         -0.3101    0.9926   -1.9222 CT        1 <0>       -0.05315
      6 C6         -1.2285   -0.0821   -2.5758 CT        1 <0>        0.15696
      7 O1         -1.0902    0.0111   -4.0012 OH        1 <0>       -0.60350
      8 H1         -1.3843    1.2454   -0.0508 HC        1 <0>        0.03649
      9 H2          0.2913    1.7777    0.0267 HC        1 <0>        0.03649
     10 H3         -0.0924    0.0450    0.0381 HC        1 <0>        0.03649
     11 H4         -1.5979    2.7213   -2.2120 HC        1 <0>        0.03649
     12 H5         -0.4711    2.4565   -3.5449 HC        1 <0>        0.03649
     13 H6          0.1039    3.1394   -2.0111 HC        1 <0>        0.03649
     14 H7         -3.0539    1.1183   -2.5379 HC        1 <0>        0.04175
     15 H8         -2.9492   -0.0692   -1.2170 HC        1 <0>        0.04175
     16 H9         -3.3251   -0.5742   -2.8724 HC        1 <0>        0.04175
     17 H10         0.2481   -1.6958   -2.3817 HC        1 <0>        0.04175
     18 H11        -1.4066   -2.2497   -2.7233 HC        1 <0>        0.04175
     19 H12        -0.9927   -1.6827   -1.1162 HC        1 <0>        0.04175
     20 H13         0.7250    0.7555   -2.2067 HC        1 <0>        0.05544
     21 H14        -1.6386   -0.6955   -4.3687 HO        1 <0>        0.39647
@<TRIPOS>BOND
     1    1    5 1
     2    2    5 1
     3    3    6 1
     4    4    6 1
     5    5    6 1
     6    6    7 1
     7    1    8 1
     8    1    9 1
     9    1   10 1
    10    2   11 1
    11    2   12 1
    12    2   13 1
    13    3   14 1
    14    3   15 1
    15    3   16 1
    16    4   17 1
    17    4   18 1
    18    4   19 1
    19    5   20 1
    20    7   21 1
@<TRIPOS>SUBSTRUCTURE
     1 <0>         1 GROUP 0 A     ****
