@<TRIPOS>MOLECULE
AlkEthOH_c1108
   22    21     1     0     0
SMALL
USER_CHARGES

@<TRIPOS>ATOM
      1 C1          0.9737   -0.3538    0.4361 CT        1 <0>       -0.09198
      2 C2          8.2974    0.3856   -0.2330 CT        1 <0>        0.11504
      3 C3          2.1032    0.5223   -0.0831 CT        1 <0>       -0.07893
      4 C4          3.4677   -0.1397    0.1302 CT        1 <0>       -0.11097
      5 C5          5.9715    0.0955   -0.0632 CT        1 <0>        0.09279
      6 C6          4.6208    0.7469   -0.3481 CT        1 <0>        0.13916
      7 O1          4.5598    1.9945    0.3426 OH        1 <0>       -0.57975
      8 O2          7.0222    0.9398   -0.5221 OS        1 <0>       -0.40882
      9 H1          0.9784   -1.3321   -0.0554 HC        1 <0>        0.03272
     10 H2          1.0832   -0.5143    1.5132 HC        1 <0>        0.03272
     11 H3          0.0004    0.1153    0.2599 HC        1 <0>        0.03272
     12 H4          9.0786    1.0571   -0.5977 H1        1 <0>        0.03353
     13 H5          8.3885   -0.5917   -0.7138 H1        1 <0>        0.03353
     14 H6          8.3970    0.2680    0.8486 H1        1 <0>        0.03353
     15 H7          2.0669    1.4900    0.4299 HC        1 <0>        0.04874
     16 H8          1.9466    0.7143   -1.1509 HC        1 <0>        0.04874
     17 H9          3.4942   -1.0969   -0.4044 HC        1 <0>        0.04187
     18 H10         3.5887   -0.3548    1.1996 HC        1 <0>        0.04187
     19 H11         6.0678   -0.8706   -0.5687 H1        1 <0>        0.02937
     20 H12         6.1189   -0.0518    1.0115 H1        1 <0>        0.02937
     21 H13         4.5188    0.9603   -1.4183 H1        1 <0>        0.09001
     22 H14         4.6420    1.7897    1.2863 HO        1 <0>        0.39474
@<TRIPOS>BOND
     1    1    3 1
     2    2    8 1
     3    3    4 1
     4    4    6 1
     5    5    6 1
     6    5    8 1
     7    6    7 1
     8    1    9 1
     9    1   10 1
    10    1   11 1
    11    2   12 1
    12    2   13 1
    13    2   14 1
    14    3   15 1
    15    3   16 1
    16    4   17 1
    17    4   18 1
    18    5   19 1
    19    5   20 1
    20    6   21 1
    21    7   22 1
@<TRIPOS>SUBSTRUCTURE
     1 <0>         1 GROUP 0 A     ****
