@<TRIPOS>MOLECULE
AlkEthOH_c881
   19    18     1     0     0
SMALL
USER_CHARGES

@<TRIPOS>ATOM
      1 C1          2.9005    0.3565   -0.2724 CT        1 <0>       -0.12480
      2 C2         -1.6804   -0.7263    1.0357 CT        1 <0>        0.33405
      3 C3          1.5562    1.0662   -0.2816 CT        1 <0>        0.34148
      4 C4         -0.7641    0.6232   -0.7055 CT        1 <0>        0.51841
      5 O1         -0.5547   -1.2371    1.7352 OH        1 <0>       -0.61071
      6 O2          1.3525    1.6086    1.0180 OH        1 <0>       -0.62075
      7 O3         -1.5329   -0.0048   -1.7330 OH        1 <0>       -0.63509
      8 O4         -1.4748    0.5921    0.5368 OS        1 <0>       -0.48035
      9 O5          0.5677    0.0969   -0.6308 OS        1 <0>       -0.47472
     10 H1          2.9046   -0.4648    0.4512 HC        1 <0>        0.05821
     11 H2          3.7012    1.0486    0.0128 HC        1 <0>        0.05821
     12 H3          3.1446   -0.0351   -1.2650 HC        1 <0>        0.05821
     13 H4         -2.5066   -0.6733    1.7505 H2        1 <0>        0.06650
     14 H5         -1.9767   -1.4176    0.2389 H2        1 <0>        0.06650
     15 H6          1.5895    1.8797   -1.0155 H2        1 <0>        0.07987
     16 H7         -0.6545    1.6709   -1.0084 H3        1 <0>        0.10311
     17 H8         -0.7834   -2.1326    2.0367 HO        1 <0>        0.41549
     18 H9          2.0831    2.2276    1.1868 HO        1 <0>        0.42273
     19 H10        -2.3688    0.4843   -1.8165 HO        1 <0>        0.42365
@<TRIPOS>BOND
     1    1    3 1
     2    2    5 1
     3    2    8 1
     4    3    6 1
     5    3    9 1
     6    4    7 1
     7    4    8 1
     8    4    9 1
     9    1   10 1
    10    1   11 1
    11    1   12 1
    12    2   13 1
    13    2   14 1
    14    3   15 1
    15    4   16 1
    16    5   17 1
    17    6   18 1
    18    7   19 1
@<TRIPOS>SUBSTRUCTURE
     1 <0>         1 GROUP 0 A     ****
