@<TRIPOS>MOLECULE
AlkEthOH_c1018
   27    26     1     0     0
SMALL
USER_CHARGES

@<TRIPOS>ATOM
      1 C1          0.6327   -0.6575    3.2513 CT        1 <0>       -0.09233
      2 C2         -1.2588   -1.3868   -1.1538 CT        1 <0>       -0.09051
      3 C3          0.4538   -0.4131   -2.6916 CT        1 <0>       -0.09051
      4 C4         -0.9857    1.7069   -0.8781 CT        1 <0>       -0.12349
      5 C5          0.8876   -0.4944    1.7598 CT        1 <0>       -0.08042
      6 C6         -0.1063    0.4890    1.1299 CT        1 <0>       -0.10447
      7 C7          0.0672   -0.6222   -1.2186 CT        1 <0>       -0.05195
      8 C8          0.0738    0.7028   -0.3954 CT        1 <0>        0.15777
      9 O1          1.3562    1.3181   -0.5979 OH        1 <0>       -0.60071
     10 H1          0.7051    0.3044    3.7688 HC        1 <0>        0.03226
     11 H2          1.3558   -1.3455    3.7006 HC        1 <0>        0.03226
     12 H3         -0.3704   -1.0605    3.4220 HC        1 <0>        0.03226
     13 H4         -2.0889   -0.7935   -1.5489 HC        1 <0>        0.03658
     14 H5         -1.5046   -1.6831   -0.1304 HC        1 <0>        0.03658
     15 H6         -1.2001   -2.3063   -1.7471 HC        1 <0>        0.03658
     16 H7         -0.2620    0.2308   -3.2122 HC        1 <0>        0.03658
     17 H8          0.4729   -1.3731   -3.2198 HC        1 <0>        0.03658
     18 H9          1.4499    0.0303   -2.7863 HC        1 <0>        0.03658
     19 H10        -0.9026    1.8944   -1.9536 HC        1 <0>        0.04217
     20 H11        -0.8404    2.6826   -0.3987 HC        1 <0>        0.04217
     21 H12        -2.0025    1.3716   -0.6543 HC        1 <0>        0.04217
     22 H13         0.8051   -1.4780    1.2860 HC        1 <0>        0.04684
     23 H14         1.9149   -0.1437    1.6113 HC        1 <0>        0.04684
     24 H15         0.0245    1.4561    1.6353 HC        1 <0>        0.04209
     25 H16        -1.1309    0.1643    1.3482 HC        1 <0>        0.04209
     26 H17         0.8489   -1.2752   -0.8083 HC        1 <0>        0.05950
     27 H18         1.3482    2.1269   -0.0688 HO        1 <0>        0.39649
@<TRIPOS>BOND
     1    1    5 1
     2    2    7 1
     3    3    7 1
     4    4    8 1
     5    5    6 1
     6    6    8 1
     7    7    8 1
     8    8    9 1
     9    1   10 1
    10    1   11 1
    11    1   12 1
    12    2   13 1
    13    2   14 1
    14    2   15 1
    15    3   16 1
    16    3   17 1
    17    3   18 1
    18    4   19 1
    19    4   20 1
    20    4   21 1
    21    5   22 1
    22    5   23 1
    23    6   24 1
    24    6   25 1
    25    7   26 1
    26    9   27 1
@<TRIPOS>SUBSTRUCTURE
     1 <0>         1 GROUP 0 A     ****
