@<TRIPOS>MOLECULE
AlkEthOH_c1232
   25    24     1     0     0
SMALL
USER_CHARGES

@<TRIPOS>ATOM
      1 C1         -5.9221    3.5940   -1.5710 CT        1 <0>       -0.09608
      2 C2         -0.8825    0.3039    0.4723 CT        1 <0>       -0.12917
      3 C3         -1.8946    3.7055   -3.1110 CT        1 <0>       -0.12193
      4 C4         -1.4311    2.0113   -1.3010 CT        1 <0>       -0.06958
      5 C5         -4.7557    3.0861   -2.3915 CT        1 <0>        0.12948
      6 C6         -1.9563    0.8336   -0.4695 CT        1 <0>        0.13837
      7 C7         -2.4683    2.5565   -2.2917 CT        1 <0>        0.14040
      8 O1         -2.3551   -0.2157   -1.3470 OH        1 <0>       -0.60581
      9 O2         -3.6005    3.0297   -1.5678 OS        1 <0>       -0.42670
     10 H1         -6.1263    2.9272   -0.7286 HC        1 <0>        0.04280
     11 H2         -5.7147    4.5976   -1.1853 HC        1 <0>        0.04280
     12 H3         -6.8236    3.6702   -2.1879 HC        1 <0>        0.04280
     13 H4          0.0092   -0.0116   -0.0779 HC        1 <0>        0.04143
     14 H5         -1.2559   -0.5454    1.0550 HC        1 <0>        0.04143
     15 H6         -0.5909    1.0753    1.1933 HC        1 <0>        0.04143
     16 H7         -1.5520    4.5113   -2.4530 HC        1 <0>        0.04065
     17 H8         -1.0222    3.3788   -3.6878 HC        1 <0>        0.04065
     18 H9         -2.6398    4.1135   -3.8005 HC        1 <0>        0.04065
     19 H10        -1.1259    2.8133   -0.6171 HC        1 <0>        0.05594
     20 H11        -0.5445    1.6922   -1.8635 HC        1 <0>        0.05594
     21 H12        -4.5567    3.7574   -3.2322 H1        1 <0>        0.02532
     22 H13        -4.9642    2.0830   -2.7754 H1        1 <0>        0.02532
     23 H14        -2.8323    1.1397    0.1129 H1        1 <0>        0.04908
     24 H15        -2.8051    1.7614   -2.9658 H1        1 <0>        0.05661
     25 H16        -2.6999   -0.9285   -0.7871 HO        1 <0>        0.39817
@<TRIPOS>BOND
     1    1    5 1
     2    2    6 1
     3    3    7 1
     4    4    6 1
     5    4    7 1
     6    5    9 1
     7    6    8 1
     8    7    9 1
     9    1   10 1
    10    1   11 1
    11    1   12 1
    12    2   13 1
    13    2   14 1
    14    2   15 1
    15    3   16 1
    16    3   17 1
    17    3   18 1
    18    4   19 1
    19    4   20 1
    20    5   21 1
    21    5   22 1
    22    6   23 1
    23    7   24 1
    24    8   25 1
@<TRIPOS>SUBSTRUCTURE
     1 <0>         1 GROUP 0 A     ****
