@<TRIPOS>MOLECULE
AlkEthOH_c789
   23    22     1     0     0
SMALL
USER_CHARGES

@<TRIPOS>ATOM
      1 C1         -0.4238    0.8108    0.6004 CT        1 <0>       -0.12532
      2 C2         -0.5369    3.8508    3.7560 CT        1 <0>       -0.12175
      3 C3         -1.1688   -2.0556    4.4598 CT        1 <0>        0.11656
      4 C4         -0.8331   -0.7088    2.5635 CT        1 <0>        0.12803
      5 C5         -0.1831    0.5832    2.0850 CT        1 <0>        0.14733
      6 C6          0.1743    2.7377    3.0014 CT        1 <0>        0.33299
      7 O1          1.3342    2.3326    3.7220 OH        1 <0>       -0.62220
      8 O2         -0.5999   -0.8539    3.9604 OS        1 <0>       -0.41305
      9 O3         -0.7516    1.6685    2.8163 OS        1 <0>       -0.45412
     10 H1         -1.4974    0.8254    0.3837 HC        1 <0>        0.04290
     11 H2          0.0100    1.7589    0.2680 HC        1 <0>        0.04290
     12 H3          0.0060   -0.0016    0.0041 HC        1 <0>        0.04290
     13 H4         -0.8727    3.5036    4.7382 HC        1 <0>        0.05396
     14 H5          0.1377    4.6979    3.9239 HC        1 <0>        0.05396
     15 H6         -1.3963    4.2217    3.1889 HC        1 <0>        0.05396
     16 H7         -0.9716   -2.1350    5.5317 H1        1 <0>        0.03134
     17 H8         -0.7358   -2.9106    3.9345 H1        1 <0>        0.03134
     18 H9         -2.2480   -2.0351    4.2907 H1        1 <0>        0.03134
     19 H10        -1.9163   -0.6903    2.4039 H1        1 <0>        0.03508
     20 H11        -0.4036   -1.5777    2.0553 H1        1 <0>        0.03508
     21 H12         0.8907    0.5686    2.3018 H1        1 <0>        0.07573
     22 H13         0.4963    3.1184    2.0253 H2        1 <0>        0.06766
     23 H14         1.9220    3.1015    3.8100 HO        1 <0>        0.41338
@<TRIPOS>BOND
     1    1    5 1
     2    2    6 1
     3    3    8 1
     4    4    5 1
     5    4    8 1
     6    5    9 1
     7    6    7 1
     8    6    9 1
     9    1   10 1
    10    1   11 1
    11    1   12 1
    12    2   13 1
    13    2   14 1
    14    2   15 1
    15    3   16 1
    16    3   17 1
    17    3   18 1
    18    4   19 1
    19    4   20 1
    20    5   21 1
    21    6   22 1
    22    7   23 1
@<TRIPOS>SUBSTRUCTURE
     1 <0>         1 GROUP 0 A     ****
