@<TRIPOS>MOLECULE
AlkEthOH_c800
   20    19     1     0     0
SMALL
USER_CHARGES

@<TRIPOS>ATOM
      1 C1          4.3992    3.9209   -3.0769 CT        1 <0>       -0.13262
      2 C2          4.4968   -1.6548   -1.0770 CT        1 <0>        0.11934
      3 C3          3.6022    1.8883   -1.8264 CT        1 <0>        0.13711
      4 C4          2.9087    0.0185   -0.5550 CT        1 <0>        0.31523
      5 C5          4.4622    3.1444   -1.7704 CT        1 <0>        0.13806
      6 O1          3.9755    3.9742   -0.7166 OH        1 <0>       -0.59001
      7 O2          3.3335   -0.9589   -1.5047 OS        1 <0>       -0.45123
      8 O3          3.6773    1.2212   -0.5734 OS        1 <0>       -0.43466
      9 H1          3.3632    4.1829   -3.3178 HC        1 <0>        0.04447
     10 H2          4.9859    4.8429   -3.0202 HC        1 <0>        0.04447
     11 H3          4.7725    3.3166   -3.9110 HC        1 <0>        0.04447
     12 H4          4.7820   -2.3892   -1.8342 H1        1 <0>        0.03609
     13 H5          4.2943   -2.1552   -0.1267 H1        1 <0>        0.03609
     14 H6          5.3105   -0.9381   -0.9430 H1        1 <0>        0.03609
     15 H7          2.5518    2.1350   -2.0133 H1        1 <0>        0.04242
     16 H8          3.9591    1.2005   -2.5993 H1        1 <0>        0.04242
     17 H9          1.8564    0.2523   -0.7520 H2        1 <0>        0.06500
     18 H10         2.9595   -0.4046    0.4547 H2        1 <0>        0.06500
     19 H11         5.4983    2.8824   -1.5294 H1        1 <0>        0.04515
     20 H12         4.5530    4.7523   -0.6908 HO        1 <0>        0.39711
@<TRIPOS>BOND
     1    1    5 1
     2    2    7 1
     3    3    5 1
     4    3    8 1
     5    4    7 1
     6    4    8 1
     7    5    6 1
     8    1    9 1
     9    1   10 1
    10    1   11 1
    11    2   12 1
    12    2   13 1
    13    2   14 1
    14    3   15 1
    15    3   16 1
    16    4   17 1
    17    4   18 1
    18    5   19 1
    19    6   20 1
@<TRIPOS>SUBSTRUCTURE
     1 <0>         1 GROUP 0 A     ****
