@<TRIPOS>MOLECULE
AlkEthOH_c194
   29    28     1     0     0
SMALL
USER_CHARGES

@<TRIPOS>ATOM
      1 C1          0.7037   -0.5009   -0.1465 CT        1 <0>       -0.12421
      2 C2          0.7145   -2.7119    1.0099 CT        1 <0>       -0.12421
      3 C3         -2.0732   -2.7519   -3.1285 CT        1 <0>       -0.11883
      4 C4          0.3580   -2.3295   -3.5315 CT        1 <0>       -0.11883
      5 C5         -0.5721   -2.5220   -1.1323 CT        1 <0>       -0.05522
      6 C6         -0.9249   -0.0788   -3.8780 CT        1 <0>        0.32706
      7 C7          0.6718   -2.0158   -0.3589 CT        1 <0>        0.15646
      8 C8         -0.8139   -2.0559   -2.5894 CT        1 <0>        0.16870
      9 O1         -1.5046    1.2132   -3.9878 OH        1 <0>       -0.58889
     10 O2          1.8582   -2.4326   -1.0384 OH        1 <0>       -0.60217
     11 O3         -1.0824   -0.6527   -2.5874 OS        1 <0>       -0.42603
     12 H1          0.6743    0.0245   -1.1084 HC        1 <0>        0.04429
     13 H2          1.6075   -0.1884    0.3863 HC        1 <0>        0.04429
     14 H3         -0.1728   -0.1497    0.4065 HC        1 <0>        0.04429
     15 H4          0.6930   -3.8020    0.8955 HC        1 <0>        0.04429
     16 H5         -0.1275   -2.4127    1.6427 HC        1 <0>        0.04429
     17 H6          1.6456   -2.4775    1.5391 HC        1 <0>        0.04429
     18 H7         -2.9383   -2.5798   -2.4798 HC        1 <0>        0.04557
     19 H8         -2.3158   -2.3935   -4.1357 HC        1 <0>        0.04557
     20 H9         -1.9177   -3.8334   -3.2174 HC        1 <0>        0.04557
     21 H10         1.2703   -1.8419   -3.1669 HC        1 <0>        0.04557
     22 H11         0.1588   -1.9606   -4.5424 HC        1 <0>        0.04557
     23 H12         0.5991   -3.3953   -3.5759 HC        1 <0>        0.04557
     24 H13        -1.4588   -2.2368   -0.5479 HC        1 <0>        0.05709
     25 H14        -0.5335   -3.6206   -1.1384 HC        1 <0>        0.05709
     26 H15        -1.3184   -0.7380   -4.6604 H2        1 <0>        0.02576
     27 H16         0.1499    0.0329   -4.0475 H2        1 <0>        0.02576
     28 H17        -1.3485    1.5224   -4.8962 HO        1 <0>        0.40453
     29 H18         2.6005   -2.1787   -0.4704 HO        1 <0>        0.39678
@<TRIPOS>BOND
     1    1    7 1
     2    2    7 1
     3    3    8 1
     4    4    8 1
     5    5    7 1
     6    5    8 1
     7    6    9 1
     8    6   11 1
     9    7   10 1
    10    8   11 1
    11    1   12 1
    12    1   13 1
    13    1   14 1
    14    2   15 1
    15    2   16 1
    16    2   17 1
    17    3   18 1
    18    3   19 1
    19    3   20 1
    20    4   21 1
    21    4   22 1
    22    4   23 1
    23    5   24 1
    24    5   25 1
    25    6   26 1
    26    6   27 1
    27    9   28 1
    28   10   29 1
@<TRIPOS>SUBSTRUCTURE
     1 <0>         1 GROUP 0 A     ****
