@<TRIPOS>MOLECULE
AlkEthOH_c473
   27    26     1     0     0
SMALL
USER_CHARGES

@<TRIPOS>ATOM
      1 C1          1.1952    4.0483    1.1446 CT        1 <0>       -0.09021
      2 C2         -0.0476    3.1469   -0.8405 CT        1 <0>       -0.09021
      3 C3          4.7770    1.6185   -0.0869 CT        1 <0>       -0.10733
      4 C4          4.5765    0.4222    2.1126 CT        1 <0>       -0.10733
      5 C5          3.3983   -0.4800    0.0863 CT        1 <0>       -0.10733
      6 C6          1.9991    1.9493   -0.0132 CT        1 <0>        0.12984
      7 C7          0.7801    2.7833    0.3903 CT        1 <0>       -0.06743
      8 C8          3.8654    0.7821    0.8099 CT        1 <0>        0.15055
      9 O1          2.7244    1.5597    1.1457 OS        1 <0>       -0.41956
     10 H1          1.8220    4.6875    0.5135 HC        1 <0>        0.03553
     11 H2          1.7646    3.8027    2.0476 HC        1 <0>        0.03553
     12 H3          0.3209    4.6354    1.4440 HC        1 <0>        0.03553
     13 H4          0.5419    3.7451   -1.5433 HC        1 <0>        0.03553
     14 H5         -0.9269    3.7352   -0.5576 HC        1 <0>        0.03553
     15 H6         -0.3940    2.2506   -1.3664 HC        1 <0>        0.03553
     16 H7          4.2702    1.8789   -1.0231 HC        1 <0>        0.04269
     17 H8          5.0908    2.5436    0.4076 HC        1 <0>        0.04269
     18 H9          5.6739    1.0546   -0.3675 HC        1 <0>        0.04269
     19 H10         3.9262   -0.1779    2.7592 HC        1 <0>        0.04269
     20 H11         4.8296    1.3244    2.6813 HC        1 <0>        0.04269
     21 H12         5.4971   -0.1409    1.9281 HC        1 <0>        0.04269
     22 H13         2.7445   -1.0801    0.7294 HC        1 <0>        0.04269
     23 H14         2.8535   -0.2399   -0.8325 HC        1 <0>        0.04269
     24 H15         4.2504   -1.1195   -0.1711 HC        1 <0>        0.04269
     25 H16         1.6865    1.0405   -0.5382 H1        1 <0>        0.02588
     26 H17         2.6682    2.5181   -0.6680 H1        1 <0>        0.02588
     27 H18         0.1579    2.1862    1.0690 HC        1 <0>        0.05986
@<TRIPOS>BOND
     1    1    7 1
     2    2    7 1
     3    3    8 1
     4    4    8 1
     5    5    8 1
     6    6    7 1
     7    6    9 1
     8    8    9 1
     9    1   10 1
    10    1   11 1
    11    1   12 1
    12    2   13 1
    13    2   14 1
    14    2   15 1
    15    3   16 1
    16    3   17 1
    17    3   18 1
    18    4   19 1
    19    4   20 1
    20    4   21 1
    21    5   22 1
    22    5   23 1
    23    5   24 1
    24    6   25 1
    25    6   26 1
    26    7   27 1
@<TRIPOS>SUBSTRUCTURE
     1 <0>         1 GROUP 0 A     ****
