@<TRIPOS>MOLECULE
AlkEthOH_c699
   24    23     1     0     0
SMALL
USER_CHARGES

@<TRIPOS>ATOM
      1 C1          3.3241    0.2824   -0.6721 CT        1 <0>       -0.13036
      2 C2         -2.5518    1.7354    0.7677 CT        1 <0>       -0.12529
      3 C3          1.0745   -0.8454   -0.8102 CT        1 <0>       -0.11142
      4 C4          1.9440    0.1543   -0.0405 CT        1 <0>        0.14301
      5 C5         -1.9291    0.3512    0.8708 CT        1 <0>        0.33850
      6 C6         -0.3133   -1.0493   -0.1899 CT        1 <0>        0.34762
      7 O1          2.0931   -0.2957    1.3031 OH        1 <0>       -0.61008
      8 O2         -2.9523   -0.6384    0.8427 OH        1 <0>       -0.60395
      9 O3         -0.9847   -2.0287   -0.9783 OH        1 <0>       -0.59529
     10 O4         -0.9952    0.2055   -0.1999 OS        1 <0>       -0.40179
     11 H1          3.8350   -0.6844   -0.7120 HC        1 <0>        0.04391
     12 H2          3.2436    0.6753   -1.6914 HC        1 <0>        0.04391
     13 H3          3.9478    0.9881   -0.1121 HC        1 <0>        0.04391
     14 H4         -3.0867    1.8526   -0.1802 HC        1 <0>        0.05270
     15 H5         -3.2785    1.8945    1.5725 HC        1 <0>        0.05270
     16 H6         -1.7894    2.5158    0.8532 HC        1 <0>        0.05270
     17 H7          0.9583   -0.5003   -1.8459 HC        1 <0>        0.06351
     18 H8          1.5773   -1.8202   -0.8584 HC        1 <0>        0.06351
     19 H9          1.4624    1.1379   -0.0166 H1        1 <0>        0.04587
     20 H10        -1.4039    0.2704    1.8292 H2        1 <0>        0.02740
     21 H11        -0.2083   -1.4275    0.8341 H2        1 <0>        0.05360
     22 H12         2.6275    0.3719    1.7608 HO        1 <0>        0.40085
     23 H13        -3.5460   -0.4848    1.5967 HO        1 <0>        0.40423
     24 H14        -0.4508   -2.8404   -0.9411 HO        1 <0>        0.40025
@<TRIPOS>BOND
     1    1    4 1
     2    2    5 1
     3    3    4 1
     4    3    6 1
     5    4    7 1
     6    5    8 1
     7    5   10 1
     8    6    9 1
     9    6   10 1
    10    1   11 1
    11    1   12 1
    12    1   13 1
    13    2   14 1
    14    2   15 1
    15    2   16 1
    16    3   17 1
    17    3   18 1
    18    4   19 1
    19    5   20 1
    20    6   21 1
    21    7   22 1
    22    8   23 1
    23    9   24 1
@<TRIPOS>SUBSTRUCTURE
     1 <0>         1 GROUP 0 A     ****
