@<TRIPOS>MOLECULE
AlkEthOH_c292
   28    27     1     0     0
SMALL
USER_CHARGES

@<TRIPOS>ATOM
      1 C1         -0.3691    1.0127   -0.3915 CT        1 <0>       -0.09323
      2 C2         -0.5768    2.4074   -2.4566 CT        1 <0>       -0.09323
      3 C3          0.3247   -1.3828   -5.3099 CT        1 <0>       -0.13670
      4 C4         -2.7168    0.1117   -2.2705 CT        1 <0>       -0.10384
      5 C5         -0.8108   -1.5054   -2.1829 CT        1 <0>       -0.10384
      6 C6         -0.3101    0.9926   -1.9222 CT        1 <0>       -0.07973
      7 C7          0.2614   -0.1539   -4.4154 CT        1 <0>        0.33296
      8 C8         -1.2285   -0.0821   -2.5758 CT        1 <0>        0.16254
      9 O1          0.7582    0.9801   -5.1197 OH        1 <0>       -0.60742
     10 O2         -1.0902    0.0111   -4.0012 OS        1 <0>       -0.40694
     11 H1         -1.3843    1.2454   -0.0508 HC        1 <0>        0.03929
     12 H2          0.2913    1.7777    0.0267 HC        1 <0>        0.03929
     13 H3         -0.0924    0.0450    0.0381 HC        1 <0>        0.03929
     14 H4         -1.5979    2.7213   -2.2120 HC        1 <0>        0.03929
     15 H5         -0.4711    2.4565   -3.5449 HC        1 <0>        0.03929
     16 H6          0.1039    3.1394   -2.0111 HC        1 <0>        0.03929
     17 H7         -0.3043   -1.2530   -6.1962 HC        1 <0>        0.05032
     18 H8          1.3486   -1.5549   -5.6604 HC        1 <0>        0.05032
     19 H9          0.0073   -2.2789   -4.7677 HC        1 <0>        0.05032
     20 H10        -3.0539    1.1183   -2.5379 HC        1 <0>        0.04435
     21 H11        -2.9492   -0.0692   -1.2170 HC        1 <0>        0.04435
     22 H12        -3.3251   -0.5742   -2.8724 HC        1 <0>        0.04435
     23 H13         0.2481   -1.6958   -2.3817 HC        1 <0>        0.04435
     24 H14        -1.4066   -2.2497   -2.7233 HC        1 <0>        0.04435
     25 H15        -0.9927   -1.6827   -1.1162 HC        1 <0>        0.04435
     26 H16         0.7250    0.7555   -2.2067 HC        1 <0>        0.04383
     27 H17         0.9006   -0.3172   -3.5402 H2        1 <0>        0.03104
     28 H18         1.6793    0.8017   -5.3731 HO        1 <0>        0.40176
@<TRIPOS>BOND
     1    1    6 1
     2    2    6 1
     3    3    7 1
     4    4    8 1
     5    5    8 1
     6    6    8 1
     7    7    9 1
     8    7   10 1
     9    8   10 1
    10    1   11 1
    11    1   12 1
    12    1   13 1
    13    2   14 1
    14    2   15 1
    15    2   16 1
    16    3   17 1
    17    3   18 1
    18    3   19 1
    19    4   20 1
    20    4   21 1
    21    4   22 1
    22    5   23 1
    23    5   24 1
    24    5   25 1
    25    6   26 1
    26    7   27 1
    27    9   28 1
@<TRIPOS>SUBSTRUCTURE
     1 <0>         1 GROUP 0 A     ****
