@<TRIPOS>MOLECULE
AlkEthOH_c915
   29    28     1     0     0
SMALL
USER_CHARGES

@<TRIPOS>ATOM
      1 C1         -1.3115   -0.6310    2.5452 CT        1 <0>       -0.09021
      2 C2          1.4494    0.7213   -1.7098 CT        1 <0>       -0.08880
      3 C3         -1.0175    0.4896   -1.8717 CT        1 <0>       -0.08880
      4 C4          0.3939   -1.5257   -1.5288 CT        1 <0>       -0.08880
      5 C5         -0.0448    1.6364    0.8459 CT        1 <0>       -0.08973
      6 C6          1.4019   -0.3609    1.1776 CT        1 <0>       -0.08973
      7 C7         -1.1037   -0.6624    1.0322 CT        1 <0>       -0.07621
      8 C8          0.2335   -0.0388   -1.1255 CT        1 <0>       -0.04214
      9 C9          0.1181    0.1425    0.4694 CT        1 <0>       -0.03022
     10 H1         -1.4170    0.3912    2.9192 HC        1 <0>        0.03278
     11 H2         -0.4961   -1.1215    3.0824 HC        1 <0>        0.03278
     12 H3         -2.2343   -1.1640    2.7988 HC        1 <0>        0.03278
     13 H4          2.3810    0.3997   -1.2281 HC        1 <0>        0.03376
     14 H5          1.5666    0.5422   -2.7825 HC        1 <0>        0.03376
     15 H6          1.3726    1.8011   -1.5475 HC        1 <0>        0.03376
     16 H7         -1.9378    0.0098   -1.5277 HC        1 <0>        0.03376
     17 H8         -0.9421    0.2934   -2.9485 HC        1 <0>        0.03376
     18 H9         -1.1313    1.5726   -1.7619 HC        1 <0>        0.03376
     19 H10        -0.4304   -2.1401   -1.1531 HC        1 <0>        0.03376
     20 H11         1.3323   -1.9539   -1.1667 HC        1 <0>        0.03376
     21 H12         0.3968   -1.6368   -2.6201 HC        1 <0>        0.03376
     22 H13        -0.9367    2.0732    0.3823 HC        1 <0>        0.03427
     23 H14        -0.1623    1.7788    1.9238 HC        1 <0>        0.03427
     24 H15         0.8133    2.2309    0.5155 HC        1 <0>        0.03427
     25 H16         1.5967   -1.4164    0.9657 HC        1 <0>        0.03427
     26 H17         1.3311   -0.2582    2.2654 HC        1 <0>        0.03427
     27 H18         2.2834    0.2165    0.8816 HC        1 <0>        0.03427
     28 H19        -1.0085   -1.7169    0.7470 HC        1 <0>        0.03842
     29 H20        -2.0308   -0.2984    0.5776 HC        1 <0>        0.03842
@<TRIPOS>BOND
     1    1    7 1
     2    2    8 1
     3    3    8 1
     4    4    8 1
     5    5    9 1
     6    6    9 1
     7    7    9 1
     8    8    9 1
     9    1   10 1
    10    1   11 1
    11    1   12 1
    12    2   13 1
    13    2   14 1
    14    2   15 1
    15    3   16 1
    16    3   17 1
    17    3   18 1
    18    4   19 1
    19    4   20 1
    20    4   21 1
    21    5   22 1
    22    5   23 1
    23    5   24 1
    24    6   25 1
    25    6   26 1
    26    6   27 1
    27    7   28 1
    28    7   29 1
@<TRIPOS>SUBSTRUCTURE
     1 <0>         1 GROUP 0 A     ****
