@<TRIPOS>MOLECULE
AlkEthOH_c546
   33    32     1     0     0
SMALL
USER_CHARGES

@<TRIPOS>ATOM
      1 C1         -3.3556    1.1572    2.0764 CT        1 <0>       -0.10832
      2 C2         -2.3592   -1.1279    2.4466 CT        1 <0>       -0.10832
      3 C3         -0.5658    0.0956   -0.9331 CT        1 <0>       -0.11824
      4 C4         -5.0135    1.4158   -0.9457 CT        1 <0>       -0.08918
      5 C5         -4.5942    1.9065   -3.3661 CT        1 <0>       -0.08918
      6 C6         -3.3718    3.1789   -1.6025 CT        1 <0>       -0.08918
      7 C7         -2.7630    0.7761   -1.9617 CT        1 <0>       -0.06945
      8 C8         -2.3380    0.1334    1.5966 CT        1 <0>        0.13722
      9 C9         -1.9541    0.6663   -0.6598 CT        1 <0>        0.13867
     10 C10        -3.9401    1.7948   -1.9803 CT        1 <0>       -0.05360
     11 O1         -2.6187   -0.2075    0.2468 OS        1 <0>       -0.42091
     12 H1         -4.3695    0.7459    2.0627 HC        1 <0>        0.04259
     13 H2         -3.1215    1.4776    3.0972 HC        1 <0>        0.04259
     14 H3         -3.3340    2.0573    1.4520 HC        1 <0>        0.04259
     15 H4         -3.3493   -1.5937    2.4418 HC        1 <0>        0.04259
     16 H5         -2.0870   -0.8947    3.4816 HC        1 <0>        0.04259
     17 H6         -1.6267   -1.8585    2.0859 HC        1 <0>        0.04259
     18 H7         -0.6260   -0.8855   -1.4139 HC        1 <0>        0.04057
     19 H8          0.0030    0.7666   -1.5857 HC        1 <0>        0.04057
     20 H9          0.0080   -0.0011   -0.0047 HC        1 <0>        0.04057
     21 H10        -4.5940    1.3241    0.0613 HC        1 <0>        0.03499
     22 H11        -5.4739    0.4517   -1.1915 HC        1 <0>        0.03499
     23 H12        -5.8121    2.1653   -0.9117 HC        1 <0>        0.03499
     24 H13        -3.8578    2.1759   -4.1311 HC        1 <0>        0.03499
     25 H14        -5.3740    2.6770   -3.3720 HC        1 <0>        0.03499
     26 H15        -5.0738    0.9695   -3.6663 HC        1 <0>        0.03499
     27 H16        -2.5994    3.4960   -2.3122 HC        1 <0>        0.03499
     28 H17        -4.1557    3.9447   -1.6010 HC        1 <0>        0.03499
     29 H18        -2.9223    3.1635   -0.6031 HC        1 <0>        0.03499
     30 H19        -3.1667   -0.2174   -2.2019 HC        1 <0>        0.05218
     31 H20        -2.0747    1.0394   -2.7764 HC        1 <0>        0.05218
     32 H21        -1.3362    0.5744    1.6220 H1        1 <0>        0.03440
     33 H22        -1.8482    1.6438   -0.1805 H1        1 <0>        0.03957
@<TRIPOS>BOND
     1    1    8 1
     2    2    8 1
     3    3    9 1
     4    4   10 1
     5    5   10 1
     6    6   10 1
     7    7    9 1
     8    7   10 1
     9    8   11 1
    10    9   11 1
    11    1   12 1
    12    1   13 1
    13    1   14 1
    14    2   15 1
    15    2   16 1
    16    2   17 1
    17    3   18 1
    18    3   19 1
    19    3   20 1
    20    4   21 1
    21    4   22 1
    22    4   23 1
    23    5   24 1
    24    5   25 1
    25    5   26 1
    26    6   27 1
    27    6   28 1
    28    6   29 1
    29    7   30 1
    30    7   31 1
    31    8   32 1
    32    9   33 1
@<TRIPOS>SUBSTRUCTURE
     1 <0>         1 GROUP 0 A     ****
