@<TRIPOS>MOLECULE
AlkEthOH_c586
   28    27     1     0     0
SMALL
USER_CHARGES

@<TRIPOS>ATOM
      1 C1          5.7081   -2.8249    0.7721 CT        1 <0>       -0.10774
      2 C2          5.8010   -4.2464    2.8510 CT        1 <0>       -0.10774
      3 C3          0.9500   -0.3335    0.4393 CT        1 <0>       -0.12404
      4 C4         -0.0809    0.0233    2.6922 CT        1 <0>       -0.12404
      5 C5          2.0341   -1.3283    2.5217 CT        1 <0>       -0.06735
      6 C6          2.8970   -2.3316    1.7591 CT        1 <0>        0.13051
      7 C7          4.9032   -3.5530    1.8377 CT        1 <0>        0.13909
      8 C8          0.7167   -0.9506    1.8190 CT        1 <0>        0.14976
      9 O1         -0.0754   -2.1254    1.6340 OH        1 <0>       -0.59891
     10 O2          4.0695   -2.6213    2.5119 OS        1 <0>       -0.42513
     11 H1          6.3718   -2.0774    1.2172 HC        1 <0>        0.04199
     12 H2          6.3147   -3.5357    0.2007 HC        1 <0>        0.04199
     13 H3          5.0495   -2.3250    0.0531 HC        1 <0>        0.04199
     14 H4          6.4670   -3.5329    3.3457 HC        1 <0>        0.04199
     15 H5          6.4112   -5.0115    2.3590 HC        1 <0>        0.04199
     16 H6          5.2085   -4.7607    3.6157 HC        1 <0>        0.04199
     17 H7          1.5191   -1.0068   -0.2104 HC        1 <0>        0.04307
     18 H8         -0.0034   -0.1595   -0.0736 HC        1 <0>        0.04307
     19 H9          1.4816    0.6209    0.5096 HC        1 <0>        0.04307
     20 H10        -0.2658   -0.3887    3.6898 HC        1 <0>        0.04307
     21 H11         0.4511    0.9753    2.8017 HC        1 <0>        0.04307
     22 H12        -1.0464    0.2616    2.2313 HC        1 <0>        0.04307
     23 H13         1.8116   -1.7655    3.5047 HC        1 <0>        0.06095
     24 H14         2.6262   -0.4270    2.7262 HC        1 <0>        0.06095
     25 H15         2.3633   -3.2730    1.5998 H1        1 <0>        0.03496
     26 H16         3.2101   -1.9420    0.7862 H1        1 <0>        0.03496
     27 H17         4.2508   -4.2921    1.3614 H1        1 <0>        0.03528
     28 H18        -0.9029   -1.8342    1.2233 HO        1 <0>        0.39813
@<TRIPOS>BOND
     1    1    7 1
     2    2    7 1
     3    3    8 1
     4    4    8 1
     5    5    6 1
     6    5    8 1
     7    6   10 1
     8    7   10 1
     9    8    9 1
    10    1   11 1
    11    1   12 1
    12    1   13 1
    13    2   14 1
    14    2   15 1
    15    2   16 1
    16    3   17 1
    17    3   18 1
    18    3   19 1
    19    4   20 1
    20    4   21 1
    21    4   22 1
    22    5   23 1
    23    5   24 1
    24    6   25 1
    25    6   26 1
    26    7   27 1
    27    9   28 1
@<TRIPOS>SUBSTRUCTURE
     1 <0>         1 GROUP 0 A     ****
