@<TRIPOS>MOLECULE
AlkEthOH_c178
   31    30     1     0     0
SMALL
USER_CHARGES

@<TRIPOS>ATOM
      1 C1          2.1177   -2.8680    0.9476 CT        1 <0>       -0.11227
      2 C2          0.1787   -4.4512    1.1550 CT        1 <0>       -0.11227
      3 C3          0.2106   -2.7478   -0.6904 CT        1 <0>       -0.11227
      4 C4          0.9511   -0.3029    0.4536 CT        1 <0>       -0.10513
      5 C5         -0.0965   -0.0035    2.7071 CT        1 <0>       -0.10513
      6 C6          2.0341   -1.3283    2.5217 CT        1 <0>       -0.11911
      7 C7          2.7319   -0.1695    3.2309 CT        1 <0>        0.13437
      8 C8          0.6121   -3.0428    0.7540 CT        1 <0>        0.16080
      9 C9          0.7167   -0.9506    1.8190 CT        1 <0>        0.17393
     10 O1          3.9429   -0.6306    3.8195 OH        1 <0>       -0.60813
     11 O2         -0.0614   -2.1299    1.6054 OS        1 <0>       -0.42094
     12 H1          2.4328   -1.8583    0.6609 HC        1 <0>        0.04252
     13 H2          2.4137   -3.0426    1.9871 HC        1 <0>        0.04252
     14 H3          2.6771   -3.5598    0.3075 HC        1 <0>        0.04252
     15 H4         -0.9009   -4.5811    1.0177 HC        1 <0>        0.04252
     16 H5          0.3790   -4.6338    2.2169 HC        1 <0>        0.04252
     17 H6          0.6973   -5.2160    0.5679 HC        1 <0>        0.04252
     18 H7         -0.8693   -2.8732   -0.8295 HC        1 <0>        0.04252
     19 H8          0.4808   -1.7283   -0.9840 HC        1 <0>        0.04252
     20 H9          0.6946   -3.4486   -1.3803 HC        1 <0>        0.04252
     21 H10         1.5313   -0.9566   -0.2063 HC        1 <0>        0.04346
     22 H11        -0.0011   -0.1288   -0.0613 HC        1 <0>        0.04346
     23 H12         1.4719    0.6556    0.5466 HC        1 <0>        0.04346
     24 H13        -0.2827   -0.4378    3.6949 HC        1 <0>        0.04346
     25 H14         0.4244    0.9518    2.8392 HC        1 <0>        0.04346
     26 H15        -1.0619    0.2337    2.2454 HC        1 <0>        0.04346
     27 H16         2.7386   -1.7348    1.7833 HC        1 <0>        0.06720
     28 H17         1.8605   -2.1384    3.2417 HC        1 <0>        0.06720
     29 H18         2.9869    0.6292    2.5285 H1        1 <0>        0.02476
     30 H19         2.1116    0.2535    4.0261 H1        1 <0>        0.02476
     31 H20         4.3492    0.1349    4.2560 HO        1 <0>        0.39879
@<TRIPOS>BOND
     1    1    8 1
     2    2    8 1
     3    3    8 1
     4    4    9 1
     5    5    9 1
     6    6    7 1
     7    6    9 1
     8    7   10 1
     9    8   11 1
    10    9   11 1
    11    1   12 1
    12    1   13 1
    13    1   14 1
    14    2   15 1
    15    2   16 1
    16    2   17 1
    17    3   18 1
    18    3   19 1
    19    3   20 1
    20    4   21 1
    21    4   22 1
    22    4   23 1
    23    5   24 1
    24    5   25 1
    25    5   26 1
    26    6   27 1
    27    6   28 1
    28    7   29 1
    29    7   30 1
    30   10   31 1
@<TRIPOS>SUBSTRUCTURE
     1 <0>         1 GROUP 0 A     ****
