@<TRIPOS>MOLECULE
AlkEthOH_c378
   30    29     1     0     0
SMALL
USER_CHARGES

@<TRIPOS>ATOM
      1 C1         -1.6233    1.0410    1.0619 CT        1 <0>       -0.09219
      2 C2          0.7736    1.4334    0.5071 CT        1 <0>       -0.09219
      3 C3         -2.0439    5.5738    0.3756 CT        1 <0>       -0.08944
      4 C4         -2.2099    4.1273    2.4016 CT        1 <0>       -0.08944
      5 C5         -3.4458    3.4600    0.2794 CT        1 <0>       -0.07989
      6 C6         -0.9015    3.3503    0.3436 CT        1 <0>       -0.06485
      7 C7         -4.7043    4.3255    0.2882 CT        1 <0>        0.13179
      8 C8         -0.4862    2.0683    1.1048 CT        1 <0>       -0.06527
      9 C9         -2.1623    4.1132    0.8656 CT        1 <0>       -0.04283
     10 O1         -5.7791    3.5643   -0.2531 OH        1 <0>       -0.60565
     11 H1         -1.8768    0.7704    0.0310 HC        1 <0>        0.03384
     12 H2         -1.3428    0.1259    1.5941 HC        1 <0>        0.03384
     13 H3         -2.5241    1.4395    1.5409 HC        1 <0>        0.03384
     14 H4          0.6318    1.1891   -0.5514 HC        1 <0>        0.03384
     15 H5          1.0237    0.5054    1.0330 HC        1 <0>        0.03384
     16 H6          1.6392    2.0951    0.5862 HC        1 <0>        0.03384
     17 H7         -2.0059    5.6203   -0.7190 HC        1 <0>        0.03467
     18 H8         -1.1340    6.0572    0.7462 HC        1 <0>        0.03467
     19 H9         -2.9012    6.1715    0.7048 HC        1 <0>        0.03467
     20 H10        -2.2942    3.1154    2.8123 HC        1 <0>        0.03467
     21 H11        -3.0781    4.6900    2.7622 HC        1 <0>        0.03467
     22 H12        -1.3078    4.5769    2.8285 HC        1 <0>        0.03467
     23 H13        -3.2559    3.1441   -0.7558 HC        1 <0>        0.05691
     24 H14        -3.6792    2.5329    0.8169 HC        1 <0>        0.05691
     25 H15        -1.0907    3.0968   -0.7091 HC        1 <0>        0.03942
     26 H16        -0.0465    4.0401    0.3231 HC        1 <0>        0.03942
     27 H17        -4.9800    4.6227    1.3035 H1        1 <0>        0.02089
     28 H18        -4.5827    5.2187   -0.3302 H1        1 <0>        0.02089
     29 H19        -0.2879    2.2901    2.1577 HC        1 <0>        0.04657
     30 H20        -6.5617    4.1373   -0.2349 HO        1 <0>        0.39789
@<TRIPOS>BOND
     1    1    8 1
     2    2    8 1
     3    3    9 1
     4    4    9 1
     5    5    7 1
     6    5    9 1
     7    6    8 1
     8    6    9 1
     9    7   10 1
    10    1   11 1
    11    1   12 1
    12    1   13 1
    13    2   14 1
    14    2   15 1
    15    2   16 1
    16    3   17 1
    17    3   18 1
    18    3   19 1
    19    4   20 1
    20    4   21 1
    21    4   22 1
    22    5   23 1
    23    5   24 1
    24    6   25 1
    25    6   26 1
    26    7   27 1
    27    7   28 1
    28    8   29 1
    29   10   30 1
@<TRIPOS>SUBSTRUCTURE
     1 <0>         1 GROUP 0 A     ****
