@<TRIPOS>MOLECULE
AlkEthOH_c258
   14    13     1     0     0
SMALL
USER_CHARGES

@<TRIPOS>ATOM
      1 C1          0.6623   -0.3793   -0.7853 CT        1 <0>       -0.08919
      2 C2         -0.0690    1.4478   -2.3443 CT        1 <0>       -0.08919
      3 C3          1.0050   -0.6288   -3.2598 CT        1 <0>       -0.08919
      4 C4          0.1007   -0.0597   -2.1688 CT        1 <0>       -0.07060
      5 H1          1.6514    0.0694   -0.6429 HC        1 <0>        0.03281
      6 H2          0.0013    0.0023   -0.0000 HC        1 <0>        0.03281
      7 H3          0.7580   -1.4612   -0.6452 HC        1 <0>        0.03281
      8 H4          0.8912    1.9690   -2.2639 HC        1 <0>        0.03281
      9 H5         -0.7401    1.8548   -1.5807 HC        1 <0>        0.03281
     10 H6         -0.4985    1.6788   -3.3249 HC        1 <0>        0.03281
     11 H7          2.0076   -0.1898   -3.2157 HC        1 <0>        0.03281
     12 H8          0.5901   -0.4267   -4.2530 HC        1 <0>        0.03281
     13 H9          1.1058   -1.7142   -3.1540 HC        1 <0>        0.03281
     14 H10        -0.8858   -0.5306   -2.2580 HC        1 <0>        0.04288
@<TRIPOS>BOND
     1    1    4 1
     2    2    4 1
     3    3    4 1
     4    1    5 1
     5    1    6 1
     6    1    7 1
     7    2    8 1
     8    2    9 1
     9    2   10 1
    10    3   11 1
    11    3   12 1
    12    3   13 1
    13    4   14 1
@<TRIPOS>SUBSTRUCTURE
     1 <0>         1 GROUP 0 A     ****
