@<TRIPOS>MOLECULE
AlkEthOH_c1229
   28    27     1     0     0
SMALL
USER_CHARGES

@<TRIPOS>ATOM
      1 C1         -0.6535   -4.4533    0.4203 CT        1 <0>       -0.09378
      2 C2          0.8152   -0.4299    0.5445 CT        1 <0>       -0.12374
      3 C3          3.3217   -1.3976   -3.7112 CT        1 <0>       -0.12474
      4 C4          3.9842   -2.7157   -1.6902 CT        1 <0>       -0.12474
      5 C5          2.0673   -1.0299   -1.5592 CT        1 <0>       -0.06526
      6 C6          0.3782   -3.3847    0.7125 CT        1 <0>        0.12951
      7 C7          1.5075   -1.5489   -0.2243 CT        1 <0>        0.14562
      8 C8          2.8129   -2.0681   -2.4299 CT        1 <0>        0.15366
      9 O1          1.9196   -3.1138   -2.8149 OH        1 <0>       -0.57467
     10 O2          0.5451   -2.5746   -0.4423 OS        1 <0>       -0.39897
     11 H1         -1.6181   -4.0052    0.1660 HC        1 <0>        0.04404
     12 H2         -0.3280   -5.0871   -0.4111 HC        1 <0>        0.04404
     13 H3         -0.7862   -5.1088    1.2873 HC        1 <0>        0.04404
     14 H4          0.0049    0.0143   -0.0416 HC        1 <0>        0.04100
     15 H5          0.4043   -0.7986    1.4909 HC        1 <0>        0.04100
     16 H6          1.5325    0.3578    0.7998 HC        1 <0>        0.04100
     17 H7          2.5078   -0.9221   -4.2682 HC        1 <0>        0.04120
     18 H8          3.8101   -2.1274   -4.3671 HC        1 <0>        0.04120
     19 H9          4.0768   -0.6371   -3.4812 HC        1 <0>        0.04120
     20 H10         3.6401   -3.2014   -0.7694 HC        1 <0>        0.04120
     21 H11         4.4850   -3.4675   -2.3084 HC        1 <0>        0.04120
     22 H12         4.7213   -1.9698   -1.3745 HC        1 <0>        0.04120
     23 H13         1.2225   -0.6435   -2.1462 HC        1 <0>        0.05831
     24 H14         2.7380   -0.1847   -1.3576 HC        1 <0>        0.05831
     25 H15         1.3405   -3.8395    0.9660 H1        1 <0>        0.01807
     26 H16         0.0510   -2.7518    1.5427 H1        1 <0>        0.01807
     27 H17         2.3057   -1.9566    0.4041 H1        1 <0>        0.03200
     28 H18         2.4348   -3.7257   -3.3617 HO        1 <0>        0.39003
@<TRIPOS>BOND
     1    1    6 1
     2    2    7 1
     3    3    8 1
     4    4    8 1
     5    5    7 1
     6    5    8 1
     7    6   10 1
     8    7   10 1
     9    8    9 1
    10    1   11 1
    11    1   12 1
    12    1   13 1
    13    2   14 1
    14    2   15 1
    15    2   16 1
    16    3   17 1
    17    3   18 1
    18    3   19 1
    19    4   20 1
    20    4   21 1
    21    4   22 1
    22    5   23 1
    23    5   24 1
    24    6   25 1
    25    6   26 1
    26    7   27 1
    27    9   28 1
@<TRIPOS>SUBSTRUCTURE
     1 <0>         1 GROUP 0 A     ****
