@<TRIPOS>MOLECULE
AlkEthOH_c259
   27    26     1     0     0
SMALL
USER_CHARGES

@<TRIPOS>ATOM
      1 C1          0.4639    0.2125   -1.2158 CT        1 <0>       -0.09186
      2 C2          2.1516   -0.9286   -2.6366 CT        1 <0>       -0.09186
      3 C3         -0.3604   -4.6047   -0.7150 CT        1 <0>       -0.08586
      4 C4          1.3282   -4.4039   -2.5326 CT        1 <0>       -0.08586
      5 C5          1.8981   -3.6786   -0.2065 CT        1 <0>       -0.08586
      6 C6          1.2310   -1.1037   -1.4225 CT        1 <0>       -0.10588
      7 C7          0.2258   -2.2840   -1.5432 CT        1 <0>        0.15655
      8 C8          0.7823   -3.7211   -1.2691 CT        1 <0>       -0.04338
      9 O1         -0.4000   -2.2561   -2.8293 OH        1 <0>       -0.59986
     10 H1         -0.1894    0.4200   -2.0702 HC        1 <0>        0.03611
     11 H2          1.1572    1.0550   -1.1202 HC        1 <0>        0.03611
     12 H3         -0.1582    0.1795   -0.3152 HC        1 <0>        0.03611
     13 H4          1.5567   -0.7908   -3.5468 HC        1 <0>        0.03611
     14 H5          2.7869   -1.8069   -2.7938 HC        1 <0>        0.03611
     15 H6          2.8013   -0.0572   -2.5425 HC        1 <0>        0.03611
     16 H7         -0.7999   -4.1764    0.1925 HC        1 <0>        0.03686
     17 H8          0.0014   -5.6103   -0.4722 HC        1 <0>        0.03686
     18 H9         -1.1691   -4.7133   -1.4472 HC        1 <0>        0.03686
     19 H10         2.1455   -3.8284   -2.9800 HC        1 <0>        0.03686
     20 H11         0.5453   -4.5069   -3.2934 HC        1 <0>        0.03686
     21 H12         1.6914   -5.4137   -2.3178 HC        1 <0>        0.03686
     22 H13         2.7404   -3.0640   -0.5430 HC        1 <0>        0.03686
     23 H14         1.5308   -3.2493    0.7331 HC        1 <0>        0.03686
     24 H15         2.2812   -4.6762    0.0286 HC        1 <0>        0.03686
     25 H16         1.8556   -1.2385   -0.5340 HC        1 <0>        0.06037
     26 H17        -0.5802   -2.1251   -0.8137 H1        1 <0>        0.02654
     27 H18        -0.8572   -1.4048   -2.8896 HO        1 <0>        0.39856
@<TRIPOS>BOND
     1    1    6 1
     2    2    6 1
     3    3    8 1
     4    4    8 1
     5    5    8 1
     6    6    7 1
     7    7    8 1
     8    7    9 1
     9    1   10 1
    10    1   11 1
    11    1   12 1
    12    2   13 1
    13    2   14 1
    14    2   15 1
    15    3   16 1
    16    3   17 1
    17    3   18 1
    18    4   19 1
    19    4   20 1
    20    4   21 1
    21    5   22 1
    22    5   23 1
    23    5   24 1
    24    6   25 1
    25    7   26 1
    26    9   27 1
@<TRIPOS>SUBSTRUCTURE
     1 <0>         1 GROUP 0 A     ****
