@<TRIPOS>MOLECULE
AlkEthOH_c128
   22    21     1     0     0
SMALL
USER_CHARGES

@<TRIPOS>ATOM
      1 C1          0.1287   -0.9258   -0.5683 CT        1 <0>       -0.12255
      2 C2         -1.7115   -2.0980    0.6600 CT        1 <0>       -0.12253
      3 C3         -2.6141    0.4435   -0.9642 CT        1 <0>       -0.12253
      4 C4         -1.8116   -0.7076   -3.0379 CT        1 <0>       -0.12253
      5 C5         -1.1921   -1.6962   -0.7274 CT        1 <0>        0.16805
      6 C6         -2.2445   -0.9158   -1.5800 CT        1 <0>        0.16805
      7 O1         -0.8779   -2.9101   -1.4295 OH        1 <0>       -0.59165
      8 O2         -3.4503   -1.6975   -1.6042 OH        1 <0>       -0.59165
      9 H1          0.5330   -0.6204   -1.5394 HC        1 <0>        0.04520
     10 H2          0.0147   -0.0376    0.0599 HC        1 <0>        0.04520
     11 H3          0.8961   -1.5624   -0.1115 HC        1 <0>        0.04520
     12 H4         -2.6533   -2.6512    0.6039 HC        1 <0>        0.04520
     13 H5         -0.9782   -2.7017    1.2040 HC        1 <0>        0.04520
     14 H6         -1.8825   -1.2100    1.2805 HC        1 <0>        0.04520
     15 H7         -2.9311    0.3509    0.0786 HC        1 <0>        0.04520
     16 H8         -1.7580    1.1282   -0.9941 HC        1 <0>        0.04520
     17 H9         -3.4109    0.9363   -1.5317 HC        1 <0>        0.04520
     18 H10        -1.5390   -1.6543   -3.5151 HC        1 <0>        0.04520
     19 H11        -2.6398   -0.3042   -3.6330 HC        1 <0>        0.04520
     20 H12        -0.9710   -0.0132   -3.1239 HC        1 <0>        0.04520
     21 H13        -0.2408   -3.3791   -0.8743 HO        1 <0>        0.39747
     22 H14        -4.0755   -1.2020   -2.1497 HO        1 <0>        0.39747
@<TRIPOS>BOND
     1    1    5 1
     2    2    5 1
     3    3    6 1
     4    4    6 1
     5    5    6 1
     6    5    7 1
     7    6    8 1
     8    1    9 1
     9    1   10 1
    10    1   11 1
    11    2   12 1
    12    2   13 1
    13    2   14 1
    14    3   15 1
    15    3   16 1
    16    3   17 1
    17    4   18 1
    18    4   19 1
    19    4   20 1
    20    7   21 1
    21    8   22 1
@<TRIPOS>SUBSTRUCTURE
     1 <0>         1 GROUP 0 A     ****
