@<TRIPOS>MOLECULE
AlkEthOH_c156
   30    29     1     0     0
SMALL
USER_CHARGES

@<TRIPOS>ATOM
      1 C1          0.4285   -1.0830   -0.8690 CT        1 <0>       -0.08695
      2 C2          0.9770    1.1434   -1.8727 CT        1 <0>       -0.08695
      3 C3          1.8612   -0.9355   -2.8961 CT        1 <0>       -0.08695
      4 C4          2.1357   -0.2691    1.7403 CT        1 <0>       -0.09074
      5 C5          4.4642    0.3096    1.1140 CT        1 <0>       -0.09074
      6 C6          2.8595   -0.1905   -0.7294 CT        1 <0>       -0.05653
      7 C7          2.6304    1.9665    0.7202 CT        1 <0>        0.13818
      8 C8          1.5279   -0.2561   -1.5436 CT        1 <0>       -0.04527
      9 C9          2.9805    0.4688    0.6836 CT        1 <0>       -0.04095
     10 O1          3.3968    2.6924   -0.2311 OH        1 <0>       -0.60061
     11 H1          0.7887   -2.0886   -0.6205 HC        1 <0>        0.03335
     12 H2         -0.4363   -1.2175   -1.5246 HC        1 <0>        0.03335
     13 H3          0.0958   -0.6170    0.0645 HC        1 <0>        0.03335
     14 H4          1.7192    1.7808   -2.3573 HC        1 <0>        0.03335
     15 H5          0.6690    1.6679   -0.9601 HC        1 <0>        0.03335
     16 H6          0.0995    1.0827   -2.5258 HC        1 <0>        0.03335
     17 H7          2.6459   -0.3919   -3.4350 HC        1 <0>        0.03335
     18 H8          0.9811   -0.9733   -3.5483 HC        1 <0>        0.03335
     19 H9          2.2128   -1.9628   -2.7464 HC        1 <0>        0.03335
     20 H10         1.0668   -0.2014    1.5040 HC        1 <0>        0.03652
     21 H11         2.2777    0.1629    2.7370 HC        1 <0>        0.03652
     22 H12         2.3697   -1.3339    1.7948 HC        1 <0>        0.03652
     23 H13         5.1356    0.8113    0.4074 HC        1 <0>        0.03652
     24 H14         4.6458    0.7392    2.1056 HC        1 <0>        0.03652
     25 H15         4.7559   -0.7463    1.1542 HC        1 <0>        0.03652
     26 H16         3.2199   -1.2243   -0.6144 HC        1 <0>        0.04486
     27 H17         3.6038    0.2860   -1.3851 HC        1 <0>        0.04486
     28 H18         2.8436    2.3869    1.7102 H1        1 <0>        0.02081
     29 H19         1.5680    2.1340    0.5232 H1        1 <0>        0.02081
     30 H20         3.1288    3.6226   -0.1561 HO        1 <0>        0.39690
@<TRIPOS>BOND
     1    1    8 1
     2    2    8 1
     3    3    8 1
     4    4    9 1
     5    5    9 1
     6    6    8 1
     7    6    9 1
     8    7    9 1
     9    7   10 1
    10    1   11 1
    11    1   12 1
    12    1   13 1
    13    2   14 1
    14    2   15 1
    15    2   16 1
    16    3   17 1
    17    3   18 1
    18    3   19 1
    19    4   20 1
    20    4   21 1
    21    4   22 1
    22    5   23 1
    23    5   24 1
    24    5   25 1
    25    6   26 1
    26    6   27 1
    27    7   28 1
    28    7   29 1
    29   10   30 1
@<TRIPOS>SUBSTRUCTURE
     1 <0>         1 GROUP 0 A     ****
