@<TRIPOS>MOLECULE
AlkEthOH_c540
   21    20     1     0     0
SMALL
USER_CHARGES

@<TRIPOS>ATOM
      1 C1          0.2247   -0.0420    1.7545 CT        1 <0>       -0.10636
      2 C2          2.1168    0.4790    0.1733 CT        1 <0>       -0.10627
      3 C3          1.5259    4.4509    0.6852 CT        1 <0>       -0.10627
      4 C4          1.5304    3.5647    3.0445 CT        1 <0>       -0.10627
      5 C5          1.3532    0.9191    1.4130 CT        1 <0>        0.13797
      6 C6          1.7303    3.2332    1.5735 CT        1 <0>        0.13797
      7 O1          0.8123    2.2184    1.1940 OS        1 <0>       -0.42249
      8 H1         -0.4829   -0.1344    0.9250 HC        1 <0>        0.04205
      9 H2          0.6262   -1.0348    1.9844 HC        1 <0>        0.04205
     10 H3         -0.3204    0.2902    2.6449 HC        1 <0>        0.04205
     11 H4          1.4543    0.3989   -0.6939 HC        1 <0>        0.04205
     12 H5          2.5905   -0.4939    0.3428 HC        1 <0>        0.04205
     13 H6          2.9216    1.1833   -0.0646 HC        1 <0>        0.04205
     14 H7          0.5242    4.8724    0.8134 HC        1 <0>        0.04205
     15 H8          2.2642    5.2242    0.9229 HC        1 <0>        0.04205
     16 H9          1.6665    4.1966   -0.3713 HC        1 <0>        0.04205
     17 H10         0.5289    3.9652    3.2290 HC        1 <0>        0.04205
     18 H11         2.2689    4.3042    3.3722 HC        1 <0>        0.04205
     19 H12         1.6740    2.6778    3.6714 HC        1 <0>        0.04205
     20 H13         2.0424    0.9895    2.2609 H1        1 <0>        0.03356
     21 H14         2.7393    2.8358    1.4223 H1        1 <0>        0.03356
@<TRIPOS>BOND
     1    1    5 1
     2    2    5 1
     3    3    6 1
     4    4    6 1
     5    5    7 1
     6    6    7 1
     7    1    8 1
     8    1    9 1
     9    1   10 1
    10    2   11 1
    11    2   12 1
    12    2   13 1
    13    3   14 1
    14    3   15 1
    15    3   16 1
    16    4   17 1
    17    4   18 1
    18    4   19 1
    19    5   20 1
    20    6   21 1
@<TRIPOS>SUBSTRUCTURE
     1 <0>         1 GROUP 0 A     ****
