@<TRIPOS>MOLECULE
AlkEthOH_c813
   19    18     1     0     0
SMALL
USER_CHARGES

@<TRIPOS>ATOM
      1 C1         -0.8157    0.7438    1.6798 CT        1 <0>       -0.11516
      2 C2          1.9588   -1.1906    0.2299 CT        1 <0>        0.34189
      3 C3         -1.1782    0.9272   -1.3892 CT        1 <0>        0.34189
      4 C4         -0.1484   -0.0725    0.5639 CT        1 <0>        0.53267
      5 O1          2.6111   -0.4064   -0.7584 OH        1 <0>       -0.60446
      6 O2         -1.3930   -0.1689   -2.2676 OH        1 <0>       -0.60446
      7 O3         -0.9168   -1.2561    0.3259 OH        1 <0>       -0.66898
      8 O4          1.1440   -0.4163    1.1060 OS        1 <0>       -0.47165
      9 O5         -0.0097    0.7674   -0.5929 OS        1 <0>       -0.47165
     10 H1         -0.2486    1.6586    1.8851 HC        1 <0>        0.06341
     11 H2         -0.8652    0.1643    2.6087 HC        1 <0>        0.06341
     12 H3         -1.8390    1.0337    1.4231 HC        1 <0>        0.06341
     13 H4          2.7242   -1.6893    0.8331 H2        1 <0>        0.06375
     14 H5          1.3717   -1.9703   -0.2657 H2        1 <0>        0.06375
     15 H6         -1.0542    1.8310   -1.9941 H2        1 <0>        0.06375
     16 H7         -2.0703    1.0656   -0.7725 H2        1 <0>        0.06375
     17 H8          3.1388   -1.0138   -1.3041 HO        1 <0>        0.42091
     18 H9         -2.2039    0.0201   -2.7693 HO        1 <0>        0.42091
     19 H10        -0.9534   -1.7822    1.1417 HO        1 <0>        0.43286
@<TRIPOS>BOND
     1    1    4 1
     2    2    5 1
     3    2    8 1
     4    3    6 1
     5    3    9 1
     6    4    7 1
     7    4    8 1
     8    4    9 1
     9    1   10 1
    10    1   11 1
    11    1   12 1
    12    2   13 1
    13    2   14 1
    14    3   15 1
    15    3   16 1
    16    5   17 1
    17    6   18 1
    18    7   19 1
@<TRIPOS>SUBSTRUCTURE
     1 <0>         1 GROUP 0 A     ****
