@<TRIPOS>MOLECULE
AlkEthOH_c425
   24    23     1     0     0
SMALL
USER_CHARGES

@<TRIPOS>ATOM
      1 C1         -1.0223    0.4225   -0.1632 CT        1 <0>       -0.09117
      2 C2         -2.7720    0.9158   -1.8831 CT        1 <0>       -0.09117
      3 C3          1.5122   -0.0674   -2.8191 CT        1 <0>       -0.12088
      4 C4          3.1190    2.4688   -2.6158 CT        1 <0>        0.11813
      5 C5         -0.3932    1.5685   -2.3523 CT        1 <0>       -0.07601
      6 C6         -1.3046    0.5383   -1.6612 CT        1 <0>       -0.06601
      7 C7          1.1132    1.2947   -2.2678 CT        1 <0>        0.14020
      8 O1          1.7735    2.3047   -3.0334 OS        1 <0>       -0.42470
      9 H1         -1.1649    1.3831    0.3430 HC        1 <0>        0.03410
     10 H2          0.0020    0.0863    0.0240 HC        1 <0>        0.03410
     11 H3         -1.6927   -0.3077    0.3030 HC        1 <0>        0.03410
     12 H4         -2.9924    1.8954   -1.4459 HC        1 <0>        0.03410
     13 H5         -3.0023    0.9695   -2.9525 HC        1 <0>        0.03410
     14 H6         -3.4454    0.1814   -1.4280 HC        1 <0>        0.03410
     15 H7          1.1710   -0.1858   -3.8533 HC        1 <0>        0.04181
     16 H8          2.6029   -0.1686   -2.8361 HC        1 <0>        0.04181
     17 H9          1.1054   -0.8851   -2.2179 HC        1 <0>        0.04181
     18 H10         3.5961    3.2457   -3.2182 H1        1 <0>        0.03048
     19 H11         3.6549    1.5232   -2.7307 H1        1 <0>        0.03048
     20 H12         3.1312    2.7669   -1.5648 H1        1 <0>        0.03048
     21 H13        -0.5859    2.5666   -1.9347 HC        1 <0>        0.05345
     22 H14        -0.6765    1.6478   -3.4111 HC        1 <0>        0.05345
     23 H15        -1.1481   -0.4456   -2.1188 HC        1 <0>        0.04707
     24 H16         1.4611    1.3970   -1.2349 H1        1 <0>        0.03617
@<TRIPOS>BOND
     1    1    6 1
     2    2    6 1
     3    3    7 1
     4    4    8 1
     5    5    6 1
     6    5    7 1
     7    7    8 1
     8    1    9 1
     9    1   10 1
    10    1   11 1
    11    2   12 1
    12    2   13 1
    13    2   14 1
    14    3   15 1
    15    3   16 1
    16    3   17 1
    17    4   18 1
    18    4   19 1
    19    4   20 1
    20    5   21 1
    21    5   22 1
    22    6   23 1
    23    7   24 1
@<TRIPOS>SUBSTRUCTURE
     1 <0>         1 GROUP 0 A     ****
