@<TRIPOS>MOLECULE
AlkEthOH_c833
   26    25     1     0     0
SMALL
USER_CHARGES

@<TRIPOS>ATOM
      1 C1          0.1801   -4.4617    1.1733 CT        1 <0>       -0.12747
      2 C2          0.9511   -0.3029    0.4536 CT        1 <0>       -0.09919
      3 C3         -0.0965   -0.0035    2.7071 CT        1 <0>       -0.09919
      4 C4          2.0341   -1.3283    2.5217 CT        1 <0>       -0.11231
      5 C5          2.7319   -0.1695    3.2309 CT        1 <0>        0.13607
      6 C6          0.5985   -3.0614    0.7514 CT        1 <0>        0.33234
      7 C7          0.7167   -0.9506    1.8190 CT        1 <0>        0.15969
      8 O1          3.9429   -0.6306    3.8195 OH        1 <0>       -0.60480
      9 O2          0.2819   -2.8578   -0.6223 OH        1 <0>       -0.61975
     10 O3         -0.0614   -2.1299    1.6054 OS        1 <0>       -0.40948
     11 H1         -0.9015   -4.5939    1.0688 HC        1 <0>        0.05175
     12 H2          0.6622   -5.2170    0.5424 HC        1 <0>        0.05175
     13 H3          0.4719   -4.6627    2.2088 HC        1 <0>        0.05175
     14 H4          1.5313   -0.9566   -0.2063 HC        1 <0>        0.04685
     15 H5         -0.0011   -0.1288   -0.0613 HC        1 <0>        0.04685
     16 H6          1.4719    0.6556    0.5466 HC        1 <0>        0.04685
     17 H7         -0.2827   -0.4378    3.6949 HC        1 <0>        0.04685
     18 H8          0.4244    0.9518    2.8392 HC        1 <0>        0.04685
     19 H9         -1.0619    0.2337    2.2454 HC        1 <0>        0.04685
     20 H10         2.7386   -1.7348    1.7833 HC        1 <0>        0.06117
     21 H11         1.8605   -2.1384    3.2417 HC        1 <0>        0.06117
     22 H12         2.9869    0.6292    2.5285 H1        1 <0>        0.02500
     23 H13         2.1116    0.2535    4.0261 H1        1 <0>        0.02500
     24 H14         1.6839   -2.9636    0.8682 H2        1 <0>        0.03212
     25 H15         4.3492    0.1349    4.2560 HO        1 <0>        0.39980
     26 H16         0.7629   -3.5196   -1.1469 HO        1 <0>        0.40348
@<TRIPOS>BOND
     1    1    6 1
     2    2    7 1
     3    3    7 1
     4    4    5 1
     5    4    7 1
     6    5    8 1
     7    6    9 1
     8    6   10 1
     9    7   10 1
    10    1   11 1
    11    1   12 1
    12    1   13 1
    13    2   14 1
    14    2   15 1
    15    2   16 1
    16    3   17 1
    17    3   18 1
    18    3   19 1
    19    4   20 1
    20    4   21 1
    21    5   22 1
    22    5   23 1
    23    6   24 1
    24    8   25 1
    25    9   26 1
@<TRIPOS>SUBSTRUCTURE
     1 <0>         1 GROUP 0 A     ****
