@<TRIPOS>MOLECULE
AlkEthOH_c37
   11    10     1     0     0
SMALL
USER_CHARGES

@<TRIPOS>ATOM
      1 C1         -0.3920   -0.9363    0.5051 CT        1 <0>        0.32605
      2 C2          0.6433    0.7513   -0.8092 CT        1 <0>        0.32605
      3 O1         -0.0305   -0.5927    1.8351 OH        1 <0>       -0.63334
      4 O2         -0.3112    1.0717   -1.8110 OH        1 <0>       -0.63334
      5 O3          0.6245   -0.6249   -0.4426 OS        1 <0>       -0.40306
      6 H1         -0.5797   -2.0139    0.4635 H2        1 <0>        0.04900
      7 H2         -1.3268   -0.4279    0.2478 H2        1 <0>        0.04900
      8 H3          1.6322    0.9591   -1.2280 H2        1 <0>        0.04900
      9 H4          0.5101    1.4024    0.0621 H2        1 <0>        0.04900
     10 H5         -0.7767   -0.8385    2.4077 HO        1 <0>        0.41082
     11 H6         -0.2271    2.0222   -1.9962 HO        1 <0>        0.41082
@<TRIPOS>BOND
     1    1    3 1
     2    1    5 1
     3    2    4 1
     4    2    5 1
     5    1    6 1
     6    1    7 1
     7    2    8 1
     8    2    9 1
     9    3   10 1
    10    4   11 1
@<TRIPOS>SUBSTRUCTURE
     1 <0>         1 GROUP 0 A     ****
