@<TRIPOS>MOLECULE
AlkEthOH_c1285
    9     8     1     0     0
SMALL
USER_CHARGES

@<TRIPOS>ATOM
      1 C1         -0.6104   -0.5152    0.7482 CT        1 <0>        0.11378
      2 C2          1.2893   -1.1660    1.9689 CT        1 <0>        0.11382
      3 O1          0.0353   -0.4987    2.0141 OS        1 <0>       -0.41984
      4 H1         -1.5686    0.0052    0.8203 H1        1 <0>        0.03204
      5 H2         -0.7682   -1.5494    0.4320 H1        1 <0>        0.03204
      6 H3          0.0241   -0.0060    0.0189 H1        1 <0>        0.03204
      7 H4          1.7559   -1.1337    2.9566 H1        1 <0>        0.03204
      8 H5          1.9352   -0.6803    1.2331 H1        1 <0>        0.03204
      9 H6          1.1279   -2.2068    1.6786 H1        1 <0>        0.03204
@<TRIPOS>BOND
     1    1    3 1
     2    2    3 1
     3    1    4 1
     4    1    5 1
     5    1    6 1
     6    2    7 1
     7    2    8 1
     8    2    9 1
@<TRIPOS>SUBSTRUCTURE
     1 <0>         1 GROUP 0 A     ****
