@<TRIPOS>MOLECULE
AlkEthOH_c281
   30    29     1     0     0
SMALL
USER_CHARGES

@<TRIPOS>ATOM
      1 C1          0.1109    1.2561    1.8918 CT        1 <0>       -0.09097
      2 C2          0.7230    2.7020   -0.0401 CT        1 <0>       -0.09097
      3 C3          0.4309   -3.0983    0.9949 CT        1 <0>       -0.13039
      4 C4          0.0550    0.4404   -1.9693 CT        1 <0>       -0.08717
      5 C5         -1.8801    1.0472   -0.5309 CT        1 <0>       -0.08717
      6 C6         -0.6325   -1.0561   -0.0272 CT        1 <0>       -0.07005
      7 C7          0.5141    1.2468    0.4097 CT        1 <0>       -0.05702
      8 C8          0.6293   -1.9326    0.0305 CT        1 <0>        0.14029
      9 C9         -0.4622    0.4249   -0.5122 CT        1 <0>       -0.04047
     10 O1          0.9104   -2.4673   -1.2575 OH        1 <0>       -0.60160
     11 H1         -0.8711    1.7145    2.0429 HC        1 <0>        0.03318
     12 H2          0.8342    1.8318    2.4807 HC        1 <0>        0.03318
     13 H3          0.0910    0.2487    2.3160 HC        1 <0>        0.03318
     14 H4         -0.2100    3.2733   -0.0219 HC        1 <0>        0.03318
     15 H5          1.4279    3.2094    0.6287 HC        1 <0>        0.03318
     16 H6          1.1466    2.7598   -1.0466 HC        1 <0>        0.03318
     17 H7         -0.4311   -3.7074    0.7014 HC        1 <0>        0.04131
     18 H8          0.2812   -2.7462    2.0199 HC        1 <0>        0.04131
     19 H9          1.3032   -3.7607    0.9801 HC        1 <0>        0.04131
     20 H10         1.0601    0.0143   -2.0471 HC        1 <0>        0.03601
     21 H11        -0.6075   -0.1283   -2.6318 HC        1 <0>        0.03601
     22 H12         0.1033    1.4586   -2.3706 HC        1 <0>        0.03601
     23 H13        -2.3280    1.0775    0.4673 HC        1 <0>        0.03601
     24 H14        -1.8469    2.0808   -0.8961 HC        1 <0>        0.03601
     25 H15        -2.5581    0.4944   -1.1887 HC        1 <0>        0.03601
     26 H16        -1.3578   -1.5479   -0.6916 HC        1 <0>        0.05255
     27 H17        -1.0984   -1.0489    0.9667 HC        1 <0>        0.05255
     28 H18         1.5029    0.7732    0.3533 HC        1 <0>        0.04231
     29 H19         1.4960   -1.3512    0.3569 H1        1 <0>        0.03400
     30 H20         1.7189   -2.9967   -1.1691 HO        1 <0>        0.39504
@<TRIPOS>BOND
     1    1    7 1
     2    2    7 1
     3    3    8 1
     4    4    9 1
     5    5    9 1
     6    6    8 1
     7    6    9 1
     8    7    9 1
     9    8   10 1
    10    1   11 1
    11    1   12 1
    12    1   13 1
    13    2   14 1
    14    2   15 1
    15    2   16 1
    16    3   17 1
    17    3   18 1
    18    3   19 1
    19    4   20 1
    20    4   21 1
    21    4   22 1
    22    5   23 1
    23    5   24 1
    24    5   25 1
    25    6   26 1
    26    6   27 1
    27    7   28 1
    28    8   29 1
    29   10   30 1
@<TRIPOS>SUBSTRUCTURE
     1 <0>         1 GROUP 0 A     ****
