@<TRIPOS>MOLECULE
AlkEthOH_c373
   36    35     1     0     0
SMALL
USER_CHARGES

@<TRIPOS>ATOM
      1 C1          1.0292   -1.1777    2.7534 CT        1 <0>       -0.09050
      2 C2          1.1113    1.2836    3.1209 CT        1 <0>       -0.09050
      3 C3         -0.3434   -1.9588    0.0747 CT        1 <0>       -0.09285
      4 C4          1.9284   -1.1359   -0.4913 CT        1 <0>       -0.09285
      5 C5         -1.5087    1.1325   -3.2521 CT        1 <0>       -0.12456
      6 C6         -2.5722    0.0392   -1.2832 CT        1 <0>       -0.12456
      7 C7          0.3590    0.3598    0.8643 CT        1 <0>       -0.06133
      8 C8         -0.0131   -0.0949   -1.6520 CT        1 <0>       -0.06105
      9 C9          1.2991    0.1740    2.0812 CT        1 <0>       -0.06512
     10 C10         0.4620   -0.6908   -0.2791 CT        1 <0>       -0.03360
     11 C11        -1.3120    0.7439   -1.7770 CT        1 <0>        0.15495
     12 O1         -1.1863    1.9632   -1.0431 OH        1 <0>       -0.59858
     13 H1         -0.0071   -1.2495    3.1012 HC        1 <0>        0.03158
     14 H2          1.6881   -1.3230    3.6161 HC        1 <0>        0.03158
     15 H3          1.2122   -2.0014    2.0549 HC        1 <0>        0.03158
     16 H4          0.0747    1.3258    3.4734 HC        1 <0>        0.03158
     17 H5          1.7526    1.1077    3.9916 HC        1 <0>        0.03158
     18 H6          1.3685    2.2667    2.7201 HC        1 <0>        0.03158
     19 H7         -1.4006   -1.7236    0.2411 HC        1 <0>        0.03372
     20 H8         -0.3068   -2.6988   -0.7323 HC        1 <0>        0.03372
     21 H9          0.0365   -2.4571    0.9687 HC        1 <0>        0.03372
     22 H10         2.5651   -0.2808   -0.7479 HC        1 <0>        0.03372
     23 H11         2.3386   -1.5919    0.4166 HC        1 <0>        0.03372
     24 H12         2.0245   -1.8587   -1.3079 HC        1 <0>        0.03372
     25 H13        -0.6217    1.6430   -3.6448 HC        1 <0>        0.04226
     26 H14        -1.6504    0.2426   -3.8763 HC        1 <0>        0.04226
     27 H15        -2.3747    1.7893   -3.3840 HC        1 <0>        0.04226
     28 H16        -2.4658   -0.2526   -0.2313 HC        1 <0>        0.04226
     29 H17        -2.7472   -0.8970   -1.8202 HC        1 <0>        0.04226
     30 H18        -3.4552    0.6802   -1.3670 HC        1 <0>        0.04226
     31 H19        -0.6742    0.3460    1.2310 HC        1 <0>        0.05211
     32 H20         0.5168    1.3620    0.4445 HC        1 <0>        0.05211
     33 H21         0.8044    0.5490   -2.0102 HC        1 <0>        0.04603
     34 H22        -0.0735   -0.9232   -2.3727 HC        1 <0>        0.04603
     35 H23         2.3460    0.1728    1.7620 HC        1 <0>        0.04404
     36 H24        -2.0093    2.4537   -1.1862 HO        1 <0>        0.39487
@<TRIPOS>BOND
     1    1    9 1
     2    2    9 1
     3    3   10 1
     4    4   10 1
     5    5   11 1
     6    6   11 1
     7    7    9 1
     8    7   10 1
     9    8   10 1
    10    8   11 1
    11   11   12 1
    12    1   13 1
    13    1   14 1
    14    1   15 1
    15    2   16 1
    16    2   17 1
    17    2   18 1
    18    3   19 1
    19    3   20 1
    20    3   21 1
    21    4   22 1
    22    4   23 1
    23    4   24 1
    24    5   25 1
    25    5   26 1
    26    5   27 1
    27    6   28 1
    28    6   29 1
    29    6   30 1
    30    7   31 1
    31    7   32 1
    32    8   33 1
    33    8   34 1
    34    9   35 1
    35   12   36 1
@<TRIPOS>SUBSTRUCTURE
     1 <0>         1 GROUP 0 A     ****
