@<TRIPOS>MOLECULE
AlkEthOH_c1050
   31    30     1     0     0
SMALL
USER_CHARGES

@<TRIPOS>ATOM
      1 C1          1.0626    0.4621    3.8742 CT        1 <0>       -0.09153
      2 C2          0.2321   -0.6531   -2.7553 CT        1 <0>       -0.12235
      3 C3         -1.2259   -2.4250   -1.7607 CT        1 <0>       -0.12235
      4 C4         -0.8127    1.9218   -0.5440 CT        1 <0>       -0.11714
      5 C5          1.0267    0.1135    2.3931 CT        1 <0>       -0.08084
      6 C6          0.1098    1.0687    1.6189 CT        1 <0>       -0.10709
      7 C7         -0.3865   -0.6009   -0.2529 CT        1 <0>       -0.05167
      8 C8         -0.8348   -0.9407   -1.6980 CT        1 <0>        0.15637
      9 C9          0.0773    0.8419    0.0832 CT        1 <0>        0.16056
     10 O1         -2.0086   -0.1893   -2.0105 OH        1 <0>       -0.60323
     11 O2          1.4057    1.0202   -0.4153 OH        1 <0>       -0.60361
     12 H1          0.0533    0.4258    4.2963 HC        1 <0>        0.03264
     13 H2          1.4603    1.4699    4.0303 HC        1 <0>        0.03264
     14 H3          1.6879   -0.2447    4.4291 HC        1 <0>        0.03264
     15 H4          0.5398    0.3968   -2.7446 HC        1 <0>        0.04351
     16 H5          1.1150   -1.2855   -2.6187 HC        1 <0>        0.04351
     17 H6         -0.1620   -0.8325   -3.7627 HC        1 <0>        0.04351
     18 H7         -1.9910   -2.6584   -1.0112 HC        1 <0>        0.04351
     19 H8         -0.3631   -3.0777   -1.5919 HC        1 <0>        0.04351
     20 H9         -1.6632   -2.6756   -2.7341 HC        1 <0>        0.04351
     21 H10        -0.8734    1.8116   -1.6314 HC        1 <0>        0.04637
     22 H11        -0.4599    2.9292   -0.3034 HC        1 <0>        0.04637
     23 H12        -1.8311    1.8688   -0.1404 HC        1 <0>        0.04637
     24 H13         2.0459    0.1563    1.9936 HC        1 <0>        0.04451
     25 H14         0.6758   -0.9185    2.2902 HC        1 <0>        0.04451
     26 H15        -0.9085    0.9974    2.0223 HC        1 <0>        0.04271
     27 H16         0.4580    2.0919    1.8156 HC        1 <0>        0.04271
     28 H17        -1.2209   -0.8438    0.4197 HC        1 <0>        0.05815
     29 H18         0.4373   -1.2852   -0.0111 HC        1 <0>        0.05815
     30 H19        -2.2952   -0.4828   -2.8882 HO        1 <0>        0.39672
     31 H20         1.6790    1.9097   -0.1475 HO        1 <0>        0.39733
@<TRIPOS>BOND
     1    1    5 1
     2    2    8 1
     3    3    8 1
     4    4    9 1
     5    5    6 1
     6    6    9 1
     7    7    8 1
     8    7    9 1
     9    8   10 1
    10    9   11 1
    11    1   12 1
    12    1   13 1
    13    1   14 1
    14    2   15 1
    15    2   16 1
    16    2   17 1
    17    3   18 1
    18    3   19 1
    19    3   20 1
    20    4   21 1
    21    4   22 1
    22    4   23 1
    23    5   24 1
    24    5   25 1
    25    6   26 1
    26    6   27 1
    27    7   28 1
    28    7   29 1
    29   10   30 1
    30   11   31 1
@<TRIPOS>SUBSTRUCTURE
     1 <0>         1 GROUP 0 A     ****
