@<TRIPOS>MOLECULE
AlkEthOH_c134
   24    23     1     0     0
SMALL
USER_CHARGES

@<TRIPOS>ATOM
      1 C1          0.1221    0.6056    2.1848 CT        1 <0>       -0.12062
      2 C2         -1.7306   -0.6820    1.1177 CT        1 <0>       -0.12062
      3 C3         -0.7959    0.2610   -1.6257 CT        1 <0>       -0.15515
      4 C4          1.8253   -1.0528   -1.2810 CT        1 <0>        0.33074
      5 C5         -0.7621    0.4936    0.9315 CT        1 <0>        0.16385
      6 C6          0.0899    0.3728   -0.3741 CT        1 <0>        0.36484
      7 O1          2.6184   -2.1975   -0.9885 OH        1 <0>       -0.58349
      8 O2         -1.5611    1.6811    0.8707 OH        1 <0>       -0.61028
      9 O3          0.8705    1.5727   -0.4693 OH        1 <0>       -0.61068
     10 O4          0.9243   -0.7866   -0.2149 OS        1 <0>       -0.46169
     11 H1          0.8289    1.4381    2.0867 HC        1 <0>        0.05132
     12 H2          0.7342   -0.2923    2.3237 HC        1 <0>        0.05132
     13 H3         -0.4715    0.7653    3.0905 HC        1 <0>        0.05132
     14 H4         -2.3895   -0.8127    0.2537 HC        1 <0>        0.05132
     15 H5         -1.1783   -1.6171    1.2692 HC        1 <0>        0.05132
     16 H6         -2.3466   -0.5549    2.0140 HC        1 <0>        0.05132
     17 H7         -0.1969    0.1766   -2.5380 HC        1 <0>        0.06001
     18 H8         -1.4158   -0.6422   -1.5908 HC        1 <0>        0.06001
     19 H9         -1.4779    1.1117   -1.7163 HC        1 <0>        0.06001
     20 H10         2.5113   -0.2126   -1.4194 H2        1 <0>        0.04152
     21 H11         1.2854   -1.2397   -2.2138 H2        1 <0>        0.04152
     22 H12         3.2130   -2.3337   -1.7456 HO        1 <0>        0.41358
     23 H13        -2.0831    1.6958    1.6854 HO        1 <0>        0.40674
     24 H14         1.4208    1.5212   -1.2683 HO        1 <0>        0.41179
@<TRIPOS>BOND
     1    1    5 1
     2    2    5 1
     3    3    6 1
     4    4    7 1
     5    4   10 1
     6    5    6 1
     7    5    8 1
     8    6    9 1
     9    6   10 1
    10    1   11 1
    11    1   12 1
    12    1   13 1
    13    2   14 1
    14    2   15 1
    15    2   16 1
    16    3   17 1
    17    3   18 1
    18    3   19 1
    19    4   20 1
    20    4   21 1
    21    7   22 1
    22    8   23 1
    23    9   24 1
@<TRIPOS>SUBSTRUCTURE
     1 <0>         1 GROUP 0 A     ****
