@<TRIPOS>MOLECULE
AlkEthOH_c779
   17    16     1     0     0
SMALL
USER_CHARGES

@<TRIPOS>ATOM
      1 C1         -0.4238    0.8108    0.6004 CT        1 <0>       -0.08896
      2 C2         -0.8331   -0.7088    2.5635 CT        1 <0>        0.10014
      3 C3         -0.1986    1.7810    4.1215 CT        1 <0>        0.32744
      4 C4         -0.1831    0.5832    2.0850 CT        1 <0>        0.14215
      5 O1         -0.2592   -1.8039    1.8578 OH        1 <0>       -0.59652
      6 O2          1.1840    2.1062    4.1142 OH        1 <0>       -0.62615
      7 O3         -0.7516    1.6685    2.8163 OS        1 <0>       -0.41492
      8 H1         -1.4974    0.8254    0.3837 HC        1 <0>        0.04919
      9 H2          0.0100    1.7589    0.2680 HC        1 <0>        0.04919
     10 H3          0.0060   -0.0016    0.0041 HC        1 <0>        0.04919
     11 H4         -0.6575   -0.8687    3.6324 H1        1 <0>        0.02569
     12 H5         -1.9097   -0.7047    2.3666 H1        1 <0>        0.02569
     13 H6         -0.3705    0.8713    4.7084 H2        1 <0>        0.03475
     14 H7         -0.7218    2.6019    4.6204 H2        1 <0>        0.03475
     15 H8          0.8907    0.5686    2.3018 H1        1 <0>        0.07517
     16 H9         -0.6952   -2.6056    2.1870 HO        1 <0>        0.40157
     17 H10         1.4715    2.1613    5.0412 HO        1 <0>        0.41163
@<TRIPOS>BOND
     1    1    4 1
     2    2    4 1
     3    2    5 1
     4    3    6 1
     5    3    7 1
     6    4    7 1
     7    1    8 1
     8    1    9 1
     9    1   10 1
    10    2   11 1
    11    2   12 1
    12    3   13 1
    13    3   14 1
    14    4   15 1
    15    5   16 1
    16    6   17 1
@<TRIPOS>SUBSTRUCTURE
     1 <0>         1 GROUP 0 A     ****
