@<TRIPOS>MOLECULE
AlkEthOH_c64
   19    18     1     0     0
SMALL
USER_CHARGES

@<TRIPOS>ATOM
      1 C1          0.6313   -0.5410   -0.7903 CT        1 <0>       -0.12803
      2 C2          4.0514    1.2316   -0.0251 CT        1 <0>       -0.12043
      3 C3          2.4074    1.7537   -1.8363 CT        1 <0>       -0.12043
      4 C4          2.1047   -0.3548   -0.4361 CT        1 <0>        0.15788
      5 C5          2.5832    1.1163   -0.4553 CT        1 <0>        0.11488
      6 O1          2.3074   -0.8932    0.8732 OH        1 <0>       -0.59789
      7 O2          1.8020    1.8852    0.4639 OH        1 <0>       -0.60495
      8 H1         -0.0236    0.0308   -0.1276 HC        1 <0>        0.04870
      9 H2          0.3427   -1.5967   -0.7504 HC        1 <0>        0.04870
     10 H3          0.4432   -0.2086   -1.8175 HC        1 <0>        0.04870
     11 H4          4.2172    0.7852    0.9616 HC        1 <0>        0.04511
     12 H5          4.3479    2.2830    0.0670 HC        1 <0>        0.04511
     13 H6          4.7189    0.7461   -0.7445 HC        1 <0>        0.04511
     14 H7          1.3693    1.6911   -2.1791 HC        1 <0>        0.04511
     15 H8          2.6447    2.8237   -1.8031 HC        1 <0>        0.04511
     16 H9          3.0541    1.2815   -2.5828 HC        1 <0>        0.04511
     17 H10         2.7187   -0.9459   -1.1264 H1        1 <0>        0.07163
     18 H11         2.0643   -1.8292    0.8223 HO        1 <0>        0.40889
     19 H12         2.1268    2.7952    0.4003 HO        1 <0>        0.40169
@<TRIPOS>BOND
     1    1    4 1
     2    2    5 1
     3    3    5 1
     4    4    5 1
     5    4    6 1
     6    5    7 1
     7    1    8 1
     8    1    9 1
     9    1   10 1
    10    2   11 1
    11    2   12 1
    12    2   13 1
    13    3   14 1
    14    3   15 1
    15    3   16 1
    16    4   17 1
    17    6   18 1
    18    7   19 1
@<TRIPOS>SUBSTRUCTURE
     1 <0>         1 GROUP 0 A     ****
