@<TRIPOS>MOLECULE
AlkEthOH_c73
   23    22     1     0     0
SMALL
USER_CHARGES

@<TRIPOS>ATOM
      1 C1          2.8436   -1.2687   -1.4107 CT        1 <0>       -0.13183
      2 C2          4.0514    1.2316   -0.0251 CT        1 <0>       -0.10469
      3 C3          2.4074    1.7537   -1.8363 CT        1 <0>       -0.10469
      4 C4          1.5631    1.1817    1.6748 CT        1 <0>        0.32140
      5 C5          2.1047   -0.3548   -0.4361 CT        1 <0>        0.11313
      6 C6          2.5832    1.1163   -0.4553 CT        1 <0>        0.17307
      7 O1          1.0979    2.0189    2.7236 OH        1 <0>       -0.58777
      8 O2          0.7150   -0.3967   -0.7708 OH        1 <0>       -0.59145
      9 O3          1.8020    1.8852    0.4639 OS        1 <0>       -0.43989
     10 H1          2.7736   -0.9094   -2.4407 HC        1 <0>        0.04680
     11 H2          2.4590   -2.2931   -1.3652 HC        1 <0>        0.04680
     12 H3          3.9055   -1.3261   -1.1461 HC        1 <0>        0.04680
     13 H4          4.2172    0.7852    0.9616 HC        1 <0>        0.04818
     14 H5          4.3479    2.2830    0.0670 HC        1 <0>        0.04818
     15 H6          4.7189    0.7461   -0.7445 HC        1 <0>        0.04818
     16 H7          1.3693    1.6911   -2.1791 HC        1 <0>        0.04818
     17 H8          2.6447    2.8237   -1.8031 HC        1 <0>        0.04818
     18 H9          3.0541    1.2815   -2.5828 HC        1 <0>        0.04818
     19 H10         2.4514    0.6271    1.9987 H2        1 <0>        0.04274
     20 H11         0.7740    0.4532    1.4675 H2        1 <0>        0.04274
     21 H12         2.2038   -0.7562    0.5798 H1        1 <0>        0.02887
     22 H13         0.9637    1.4549    3.5039 HO        1 <0>        0.40968
     23 H14         0.4410   -1.3208   -0.6769 HO        1 <0>        0.39921
@<TRIPOS>BOND
     1    1    5 1
     2    2    6 1
     3    3    6 1
     4    4    7 1
     5    4    9 1
     6    5    6 1
     7    5    8 1
     8    6    9 1
     9    1   10 1
    10    1   11 1
    11    1   12 1
    12    2   13 1
    13    2   14 1
    14    2   15 1
    15    3   16 1
    16    3   17 1
    17    3   18 1
    18    4   19 1
    19    4   20 1
    20    5   21 1
    21    7   22 1
    22    8   23 1
@<TRIPOS>SUBSTRUCTURE
     1 <0>         1 GROUP 0 A     ****
