@<TRIPOS>MOLECULE
AlkEthOH_c1081
   29    28     1     0     0
SMALL
USER_CHARGES

@<TRIPOS>ATOM
      1 C1         -1.9168    0.7411    2.7530 CT        1 <0>       -0.09157
      2 C2          1.6638   -2.0135   -0.8293 CT        1 <0>       -0.08987
      3 C3          3.0599    0.0172   -0.3971 CT        1 <0>       -0.08987
      4 C4         -1.7063    0.8220   -1.7493 CT        1 <0>       -0.09069
      5 C5         -1.4088    1.0044    1.3426 CT        1 <0>       -0.08022
      6 C6         -1.3843   -0.2827    0.5136 CT        1 <0>       -0.07217
      7 C7          0.6390    0.3179   -0.9982 CT        1 <0>       -0.06943
      8 C8          1.6578   -0.5876   -0.2772 CT        1 <0>       -0.06706
      9 C9         -0.8359   -0.1307   -0.9203 CT        1 <0>       -0.06250
     10 H1         -2.9215    0.3069    2.7337 HC        1 <0>        0.03213
     11 H2         -1.9618    1.6763    3.3199 HC        1 <0>        0.03213
     12 H3         -1.2538    0.0522    3.2862 HC        1 <0>        0.03213
     13 H4          1.9035   -2.0245   -1.8979 HC        1 <0>        0.03266
     14 H5          2.4080   -2.6274   -0.3105 HC        1 <0>        0.03266
     15 H6          0.6929   -2.4987   -0.6923 HC        1 <0>        0.03266
     16 H7          3.3641    0.0886   -1.4467 HC        1 <0>        0.03266
     17 H8          3.8024   -0.5904    0.1315 HC        1 <0>        0.03266
     18 H9          3.0856    1.0272    0.0258 HC        1 <0>        0.03266
     19 H10        -1.6904    1.8406   -1.3489 HC        1 <0>        0.03297
     20 H11        -2.7461    0.4796   -1.7741 HC        1 <0>        0.03297
     21 H12        -1.3479    0.8671   -2.7836 HC        1 <0>        0.03297
     22 H13        -0.4051    1.4368    1.4090 HC        1 <0>        0.03928
     23 H14        -2.0563    1.7505    0.8706 HC        1 <0>        0.03928
     24 H15        -2.4039   -0.6862    0.4557 HC        1 <0>        0.03766
     25 H16        -0.7974   -1.0412    1.0456 HC        1 <0>        0.03766
     26 H17         0.7272    1.3372   -0.6002 HC        1 <0>        0.03878
     27 H18         0.9224    0.3887   -2.0575 HC        1 <0>        0.03878
     28 H19         1.4138   -0.6316    0.7904 HC        1 <0>        0.04754
     29 H20        -0.9183   -1.1153   -1.3984 HC        1 <0>        0.04314
@<TRIPOS>BOND
     1    1    5 1
     2    2    8 1
     3    3    8 1
     4    4    9 1
     5    5    6 1
     6    6    9 1
     7    7    8 1
     8    7    9 1
     9    1   10 1
    10    1   11 1
    11    1   12 1
    12    2   13 1
    13    2   14 1
    14    2   15 1
    15    3   16 1
    16    3   17 1
    17    3   18 1
    18    4   19 1
    19    4   20 1
    20    4   21 1
    21    5   22 1
    22    5   23 1
    23    6   24 1
    24    6   25 1
    25    7   26 1
    26    7   27 1
    27    8   28 1
    28    9   29 1
@<TRIPOS>SUBSTRUCTURE
     1 <0>         1 GROUP 0 A     ****
