@<TRIPOS>MOLECULE
AlkEthOH_c0
    5     4     1     0     0
SMALL
USER_CHARGES

@<TRIPOS>ATOM
      1 C1          0.0000    0.0000    0.0000 CT        1 <0>       -0.10868
      2 H1          1.1000    0.0000    0.0000 HC        1 <0>        0.02717
      3 H2         -0.3672    0.0000    1.0369 HC        1 <0>        0.02717
      4 H3         -0.3665    0.8981   -0.5186 HC        1 <0>        0.02717
      5 H4         -0.3665   -0.8981   -0.5186 HC        1 <0>        0.02717
@<TRIPOS>BOND
     1    1    2 1
     2    1    3 1
     3    1    4 1
     4    1    5 1
@<TRIPOS>SUBSTRUCTURE
     1 <0>         1 GROUP 0 A     ****
