@<TRIPOS>MOLECULE
AlkEthOH_c1155
   24    23     1     0     0
SMALL
USER_CHARGES

@<TRIPOS>ATOM
      1 C1          3.8909    3.2767    4.2687 CT        1 <0>       -0.09307
      2 C2          1.0495   -0.3816   -0.2534 CT        1 <0>       -0.09040
      3 C3          1.1039    1.1686   -2.2261 CT        1 <0>       -0.09040
      4 C4          3.6786    2.1661    3.2557 CT        1 <0>       -0.08497
      5 C5          2.8986    2.6484    2.0423 CT        1 <0>        0.13065
      6 C6          1.9991    1.9493   -0.0132 CT        1 <0>        0.13263
      7 C7          1.8182    0.7470   -0.9439 CT        1 <0>       -0.06792
      8 O1          2.7244    1.5597    1.1457 OS        1 <0>       -0.42312
      9 H1          4.4206    4.1222    3.8181 HC        1 <0>        0.03483
     10 H2          2.9281    3.6394    4.6420 HC        1 <0>        0.03483
     11 H3          4.4747    2.9215    5.1237 HC        1 <0>        0.03483
     12 H4          0.0462   -0.0483    0.0327 HC        1 <0>        0.03626
     13 H5          1.5657   -0.7163    0.6529 HC        1 <0>        0.03626
     14 H6          0.9340   -1.2452   -0.9165 HC        1 <0>        0.03626
     15 H7          0.1076    1.5654   -2.0043 HC        1 <0>        0.03626
     16 H8          0.9803    0.3150   -2.9009 HC        1 <0>        0.03626
     17 H9          1.6660    1.9434   -2.7588 HC        1 <0>        0.03626
     18 H10         3.1474    1.3299    3.7261 HC        1 <0>        0.05344
     19 H11         4.6472    1.7646    2.9347 HC        1 <0>        0.05344
     20 H12         1.9114    3.0203    2.3348 H1        1 <0>        0.02410
     21 H13         3.4392    3.4453    1.5217 H1        1 <0>        0.02410
     22 H14         2.5635    2.7424   -0.5149 H1        1 <0>        0.02424
     23 H15         1.0314    2.3549    0.3013 H1        1 <0>        0.02424
     24 H16         2.8097    0.3560   -1.2057 HC        1 <0>        0.06099
@<TRIPOS>BOND
     1    1    4 1
     2    2    7 1
     3    3    7 1
     4    4    5 1
     5    5    8 1
     6    6    7 1
     7    6    8 1
     8    1    9 1
     9    1   10 1
    10    1   11 1
    11    2   12 1
    12    2   13 1
    13    2   14 1
    14    3   15 1
    15    3   16 1
    16    3   17 1
    17    4   18 1
    18    4   19 1
    19    5   20 1
    20    5   21 1
    21    6   22 1
    22    6   23 1
    23    7   24 1
@<TRIPOS>SUBSTRUCTURE
     1 <0>         1 GROUP 0 A     ****
