@<TRIPOS>MOLECULE
AlkEthOH_c983
   24    23     1     0     0
SMALL
USER_CHARGES

@<TRIPOS>ATOM
      1 C1          0.9784   -0.0326   -0.2360 CT        1 <0>       -0.09042
      2 C2         -1.7194   -1.7931   -2.2886 CT        1 <0>       -0.10676
      3 C3         -2.8580    0.0196   -3.6188 CT        1 <0>       -0.10676
      4 C4          1.0608    0.9421   -3.9925 CT        1 <0>       -0.11813
      5 C5          1.4098    0.6794   -1.5114 CT        1 <0>       -0.07796
      6 C6         -1.5290   -0.5912   -3.2012 CT        1 <0>        0.13778
      7 C7          0.6395    0.1877   -2.7386 CT        1 <0>        0.13693
      8 O1         -0.7550    0.3897   -2.5267 OS        1 <0>       -0.41936
      9 H1         -0.0930    0.1019   -0.0565 HC        1 <0>        0.03627
     10 H2          1.5239    0.3435    0.6351 HC        1 <0>        0.03627
     11 H3          1.1759   -1.1062   -0.3184 HC        1 <0>        0.03627
     12 H4         -2.2762   -1.5224   -1.3863 HC        1 <0>        0.04210
     13 H5         -2.2646   -2.5861   -2.8117 HC        1 <0>        0.04210
     14 H6         -0.7549   -2.2189   -1.9906 HC        1 <0>        0.04210
     15 H7         -3.4420    0.3334   -2.7483 HC        1 <0>        0.04210
     16 H8         -3.4466   -0.7043   -4.1926 HC        1 <0>        0.04210
     17 H9         -2.7056    0.8875   -4.2698 HC        1 <0>        0.04210
     18 H10         0.9007    2.0196   -3.8742 HC        1 <0>        0.04098
     19 H11         2.1149    0.7666   -4.2274 HC        1 <0>        0.04098
     20 H12         0.4568    0.6272   -4.8504 HC        1 <0>        0.04098
     21 H13         2.4847    0.5237   -1.6590 HC        1 <0>        0.04613
     22 H14         1.2456    1.7551   -1.3741 HC        1 <0>        0.04613
     23 H15        -0.9699   -0.8942   -4.0925 H1        1 <0>        0.03374
     24 H16         0.8085   -0.8858   -2.8804 H1        1 <0>        0.03433
@<TRIPOS>BOND
     1    1    5 1
     2    2    6 1
     3    3    6 1
     4    4    7 1
     5    5    7 1
     6    6    8 1
     7    7    8 1
     8    1    9 1
     9    1   10 1
    10    1   11 1
    11    2   12 1
    12    2   13 1
    13    2   14 1
    14    3   15 1
    15    3   16 1
    16    3   17 1
    17    4   18 1
    18    4   19 1
    19    4   20 1
    20    5   21 1
    21    5   22 1
    22    6   23 1
    23    7   24 1
@<TRIPOS>SUBSTRUCTURE
     1 <0>         1 GROUP 0 A     ****
