@<TRIPOS>MOLECULE
AlkEthOH_c322
   27    26     1     0     0
SMALL
USER_CHARGES

@<TRIPOS>ATOM
      1 C1          1.9214   -1.5674   -0.5628 CT        1 <0>       -0.08983
      2 C2          2.8335    0.7601   -0.6968 CT        1 <0>       -0.08983
      3 C3         -0.1034    0.5611   -1.6753 CT        1 <0>       -0.08837
      4 C4         -2.9970   -0.5338    1.6188 CT        1 <0>       -0.13169
      5 C5         -0.6865   -0.3540    0.6253 CT        1 <0>       -0.06792
      6 C6          1.7718   -0.1339   -0.0455 CT        1 <0>       -0.06368
      7 C7          0.3384    0.4547   -0.2106 CT        1 <0>       -0.05736
      8 C8         -2.0818    0.2800    0.7115 CT        1 <0>        0.13942
      9 O1         -1.9679    1.5983    1.2386 OH        1 <0>       -0.59991
     10 H1          1.7062   -1.6099   -1.6364 HC        1 <0>        0.03282
     11 H2          2.9397   -1.9411   -0.4232 HC        1 <0>        0.03282
     12 H3          1.2311   -2.2538   -0.0625 HC        1 <0>        0.03282
     13 H4          2.6689    0.8225   -1.7782 HC        1 <0>        0.03282
     14 H5          3.8378    0.3537   -0.5388 HC        1 <0>        0.03282
     15 H6          2.8090    1.7805   -0.3023 HC        1 <0>        0.03282
     16 H7         -0.1575   -0.4227   -2.1521 HC        1 <0>        0.03240
     17 H8         -1.0922    1.0234   -1.7539 HC        1 <0>        0.03240
     18 H9          0.5783    1.1864   -2.2586 HC        1 <0>        0.03240
     19 H10        -2.5786   -0.6262    2.6257 HC        1 <0>        0.04185
     20 H11        -3.9892   -0.0749    1.6893 HC        1 <0>        0.04185
     21 H12        -3.1449   -1.5395    1.2107 HC        1 <0>        0.04185
     22 H13        -0.7837   -1.3676    0.2190 HC        1 <0>        0.04661
     23 H14        -0.2895   -0.4509    1.6446 HC        1 <0>        0.04661
     24 H15         1.9977   -0.1499    1.0296 HC        1 <0>        0.04212
     25 H16         0.3683    1.4748    0.1951 HC        1 <0>        0.06607
     26 H17        -2.5353    0.3482   -0.2822 H1        1 <0>        0.03108
     27 H18        -2.8644    1.9683    1.2557 HO        1 <0>        0.39701
@<TRIPOS>BOND
     1    1    6 1
     2    2    6 1
     3    3    7 1
     4    4    8 1
     5    5    7 1
     6    5    8 1
     7    6    7 1
     8    8    9 1
     9    1   10 1
    10    1   11 1
    11    1   12 1
    12    2   13 1
    13    2   14 1
    14    2   15 1
    15    3   16 1
    16    3   17 1
    17    3   18 1
    18    4   19 1
    19    4   20 1
    20    4   21 1
    21    5   22 1
    22    5   23 1
    23    6   24 1
    24    7   25 1
    25    8   26 1
    26    9   27 1
@<TRIPOS>SUBSTRUCTURE
     1 <0>         1 GROUP 0 A     ****
