@<TRIPOS>MOLECULE
AlkEthOH_c1062
   31    30     1     0     0
SMALL
USER_CHARGES

@<TRIPOS>ATOM
      1 C1          0.0099   -1.2929    3.0419 CT        1 <0>       -0.09422
      2 C2         -0.5712    0.1827   -3.2514 CT        1 <0>       -0.10631
      3 C3         -2.0796   -1.7021   -2.5574 CT        1 <0>       -0.10631
      4 C4         -2.2499    0.5244   -1.4075 CT        1 <0>       -0.10631
      5 C5          1.9630   -0.1274   -0.8649 CT        1 <0>       -0.12696
      6 C6          0.1883   -1.3220    1.5312 CT        1 <0>       -0.07131
      7 C7          0.2550    0.0973    0.9499 CT        1 <0>       -0.11460
      8 C8         -1.3090   -0.4715   -2.0842 CT        1 <0>        0.18501
      9 C9          0.4780    0.1238   -0.5776 CT        1 <0>        0.36436
     10 O1          0.1118    1.4267   -1.0353 OH        1 <0>       -0.62329
     11 O2         -0.3507   -0.9072   -1.1312 OS        1 <0>       -0.43734
     12 H1         -0.9016   -0.7472    3.3051 HC        1 <0>        0.03165
     13 H2          0.8556   -0.7955    3.5273 HC        1 <0>        0.03165
     14 H3         -0.0720   -2.3065    3.4470 HC        1 <0>        0.03165
     15 H4         -0.0168    1.0664   -2.9158 HC        1 <0>        0.04362
     16 H5          0.1325   -0.5108   -3.7233 HC        1 <0>        0.04362
     17 H6         -1.2770    0.5317   -4.0138 HC        1 <0>        0.04362
     18 H7         -2.6105   -2.1746   -1.7231 HC        1 <0>        0.04362
     19 H8         -1.3967   -2.4601   -2.9577 HC        1 <0>        0.04362
     20 H9         -2.8091   -1.4482   -3.3333 HC        1 <0>        0.04362
     21 H10        -2.7792    0.0554   -0.5702 HC        1 <0>        0.04362
     22 H11        -1.7085    1.3973   -1.0287 HC        1 <0>        0.04362
     23 H12        -3.0206    0.8689   -2.1065 HC        1 <0>        0.04362
     24 H13         2.1669   -0.1171   -1.9406 HC        1 <0>        0.04785
     25 H14         2.5939    0.6393   -0.4026 HC        1 <0>        0.04785
     26 H15         2.2890   -1.0855   -0.4453 HC        1 <0>        0.04785
     27 H16         1.1055   -1.8726    1.2940 HC        1 <0>        0.05170
     28 H17        -0.6472   -1.8743    1.0866 HC        1 <0>        0.05170
     29 H18        -0.6832    0.6132    1.1921 HC        1 <0>        0.04571
     30 H19         1.0712    0.6374    1.4470 HC        1 <0>        0.04571
     31 H20         0.6551    2.0804   -0.5642 HO        1 <0>        0.41138
@<TRIPOS>BOND
     1    1    6 1
     2    2    8 1
     3    3    8 1
     4    4    8 1
     5    5    9 1
     6    6    7 1
     7    7    9 1
     8    8   11 1
     9    9   10 1
    10    9   11 1
    11    1   12 1
    12    1   13 1
    13    1   14 1
    14    2   15 1
    15    2   16 1
    16    2   17 1
    17    3   18 1
    18    3   19 1
    19    3   20 1
    20    4   21 1
    21    4   22 1
    22    4   23 1
    23    5   24 1
    24    5   25 1
    25    5   26 1
    26    6   27 1
    27    6   28 1
    28    7   29 1
    29    7   30 1
    30   10   31 1
@<TRIPOS>SUBSTRUCTURE
     1 <0>         1 GROUP 0 A     ****
