@<TRIPOS>MOLECULE
AlkEthOH_c600
   31    30     1     0     0
SMALL
USER_CHARGES

@<TRIPOS>ATOM
      1 C1         -2.9043    1.7653    1.1437 CT        1 <0>       -0.12896
      2 C2          0.1939   -1.8428   -1.5878 CT        1 <0>       -0.08732
      3 C3          2.4933   -1.1458   -0.9705 CT        1 <0>       -0.08732
      4 C4          1.0087    0.4289   -2.2182 CT        1 <0>       -0.08732
      5 C5          0.5445   -1.1374    1.3991 CT        1 <0>       -0.09185
      6 C6         -0.9343    0.5297    0.1610 CT        1 <0>       -0.10766
      7 C7         -1.4966    1.2403    1.4072 CT        1 <0>        0.14160
      8 C8          1.0372   -0.6367   -1.1023 CT        1 <0>       -0.07080
      9 C9          0.4992   -0.0765    0.2839 CT        1 <0>        0.17243
     10 O1         -0.6630    2.3384    1.7591 OH        1 <0>       -0.60777
     11 O2          1.3888    0.9812    0.6796 OH        1 <0>       -0.59897
     12 H1         -2.9116    2.4619    0.2981 HC        1 <0>        0.04282
     13 H2         -3.2740    2.3220    2.0116 HC        1 <0>        0.04282
     14 H3         -3.6009    0.9482    0.9333 HC        1 <0>        0.04282
     15 H4         -0.8597   -1.5622   -1.7070 HC        1 <0>        0.03592
     16 H5          0.5395   -2.2163   -2.5574 HC        1 <0>        0.03592
     17 H6          0.2163   -2.6725   -0.8748 HC        1 <0>        0.03592
     18 H7          3.1617   -0.3464   -0.6285 HC        1 <0>        0.03592
     19 H8          2.8816   -1.5079   -1.9286 HC        1 <0>        0.03592
     20 H9          2.5761   -1.9563   -0.2392 HC        1 <0>        0.03592
     21 H10         1.5924    1.3114   -1.9295 HC        1 <0>        0.03592
     22 H11         1.4408    0.0523   -3.1506 HC        1 <0>        0.03592
     23 H12        -0.0070    0.7760   -2.4294 HC        1 <0>        0.03592
     24 H13         1.5457   -1.5717    1.4966 HC        1 <0>        0.04265
     25 H14         0.2568   -0.7232    2.3697 HC        1 <0>        0.04265
     26 H15        -0.1029   -1.9903    1.1760 HC        1 <0>        0.04265
     27 H16        -0.9182    1.2772   -0.6422 HC        1 <0>        0.05791
     28 H17        -1.6442   -0.2536   -0.1244 HC        1 <0>        0.05791
     29 H18        -1.5337    0.5505    2.2563 H1        1 <0>        0.03837
     30 H19        -1.0465    2.7345    2.5577 HO        1 <0>        0.40320
     31 H20         1.3496    1.6376   -0.0285 HO        1 <0>        0.41686
@<TRIPOS>BOND
     1    1    7 1
     2    2    8 1
     3    3    8 1
     4    4    8 1
     5    5    9 1
     6    6    7 1
     7    6    9 1
     8    7   10 1
     9    8    9 1
    10    9   11 1
    11    1   12 1
    12    1   13 1
    13    1   14 1
    14    2   15 1
    15    2   16 1
    16    2   17 1
    17    3   18 1
    18    3   19 1
    19    3   20 1
    20    4   21 1
    21    4   22 1
    22    4   23 1
    23    5   24 1
    24    5   25 1
    25    5   26 1
    26    6   27 1
    27    6   28 1
    28    7   29 1
    29   10   30 1
    30   11   31 1
@<TRIPOS>SUBSTRUCTURE
     1 <0>         1 GROUP 0 A     ****
