@<TRIPOS>MOLECULE
AlkEthOH_c1048
   25    24     1     0     0
SMALL
USER_CHARGES

@<TRIPOS>ATOM
      1 C1         -0.5350   -0.9162    0.5727 CT        1 <0>       -0.09393
      2 C2         -0.2913   -4.8812   -1.5864 CT        1 <0>       -0.09930
      3 C3          1.3843   -3.8070   -3.1121 CT        1 <0>       -0.09930
      4 C4         -0.8645   -1.8862   -0.5527 CT        1 <0>       -0.07801
      5 C5          0.4071   -2.5093   -1.1412 CT        1 <0>       -0.10215
      6 C6         -0.5902   -1.8825   -3.7163 CT        1 <0>        0.32538
      7 C7          0.1536   -3.5662   -2.2352 CT        1 <0>        0.15311
      8 O1          0.1386   -2.0661   -4.9215 OH        1 <0>       -0.62487
      9 O2         -0.9126   -3.1052   -3.0679 OS        1 <0>       -0.40854
     10 H1          0.1273   -0.1183    0.2216 HC        1 <0>        0.03185
     11 H2         -0.0433   -1.4317    1.4037 HC        1 <0>        0.03185
     12 H3         -1.4507   -0.4542    0.9546 HC        1 <0>        0.03185
     13 H4         -1.1729   -4.7282   -0.9535 HC        1 <0>        0.04596
     14 H5          0.4928   -5.2770   -0.9306 HC        1 <0>        0.04596
     15 H6         -0.5326   -5.6399   -2.3379 HC        1 <0>        0.04596
     16 H7          1.7236   -2.8815   -3.5887 HC        1 <0>        0.04596
     17 H8          1.1480   -4.4953   -3.9323 HC        1 <0>        0.04596
     18 H9          2.2119   -4.2324   -2.5357 HC        1 <0>        0.04596
     19 H10        -1.5268   -2.6679   -0.1647 HC        1 <0>        0.04515
     20 H11        -1.4158   -1.3440   -1.3282 HC        1 <0>        0.04515
     21 H12         1.0476   -1.7121   -1.5396 HC        1 <0>        0.04493
     22 H13         0.9595   -2.9821   -0.3179 HC        1 <0>        0.04493
     23 H14        -0.0494   -1.2039   -3.0465 H2        1 <0>        0.03602
     24 H15        -1.5374   -1.4034   -3.9803 H2        1 <0>        0.03602
     25 H16         0.3120   -1.1835   -5.2902 HO        1 <0>        0.40410
@<TRIPOS>BOND
     1    1    4 1
     2    2    7 1
     3    3    7 1
     4    4    5 1
     5    5    7 1
     6    6    8 1
     7    6    9 1
     8    7    9 1
     9    1   10 1
    10    1   11 1
    11    1   12 1
    12    2   13 1
    13    2   14 1
    14    2   15 1
    15    3   16 1
    16    3   17 1
    17    3   18 1
    18    4   19 1
    19    4   20 1
    20    5   21 1
    21    5   22 1
    22    6   23 1
    23    6   24 1
    24    8   25 1
@<TRIPOS>SUBSTRUCTURE
     1 <0>         1 GROUP 0 A     ****
