@<TRIPOS>MOLECULE
AlkEthOH_c817
   24    23     1     0     0
SMALL
USER_CHARGES

@<TRIPOS>ATOM
      1 C1         -0.7364    0.9671    2.8937 CT        1 <0>       -0.12197
      2 C2          0.6867    1.4065   -1.6928 CT        1 <0>       -0.11734
      3 C3         -1.2372   -0.1431   -2.1064 CT        1 <0>       -0.11734
      4 C4          0.2064    0.1545    2.0210 CT        1 <0>        0.33472
      5 C5          0.4151   -0.6455   -0.2212 CT        1 <0>        0.34452
      6 C6          0.2170   -0.0513   -1.6336 CT        1 <0>        0.16491
      7 O1          1.4748    0.8001    2.0459 OH        1 <0>       -0.62951
      8 O2          0.0172   -2.0166   -0.2434 OH        1 <0>       -0.60669
      9 O3          1.0080   -0.8043   -2.5590 OH        1 <0>       -0.60337
     10 O4         -0.3581    0.1121    0.7113 OS        1 <0>       -0.47644
     11 H1         -0.8504    1.9829    2.4980 HC        1 <0>        0.05581
     12 H2         -0.3492    1.0547    3.9137 HC        1 <0>        0.05581
     13 H3         -1.7321    0.5135    2.9224 HC        1 <0>        0.05581
     14 H4          1.7267    1.4936   -1.3579 HC        1 <0>        0.04927
     15 H5          0.0678    2.0630   -1.0730 HC        1 <0>        0.04927
     16 H6          0.6624    1.7812   -2.7226 HC        1 <0>        0.04927
     17 H7         -1.6013   -1.1759   -2.0749 HC        1 <0>        0.04927
     18 H8         -1.9027    0.4795   -1.5002 HC        1 <0>        0.04927
     19 H9         -1.3254    0.1766   -3.1514 HC        1 <0>        0.04927
     20 H10         0.3002   -0.8537    2.4406 H2        1 <0>        0.07328
     21 H11         1.4811   -0.6056    0.0362 H2        1 <0>        0.06733
     22 H12         1.7728    0.8176    2.9710 HO        1 <0>        0.41311
     23 H13         0.1493   -2.3710    0.6521 HO        1 <0>        0.40550
     24 H14         0.8522   -0.4111   -3.4297 HO        1 <0>        0.40624
@<TRIPOS>BOND
     1    1    4 1
     2    2    6 1
     3    3    6 1
     4    4    7 1
     5    4   10 1
     6    5    6 1
     7    5    8 1
     8    5   10 1
     9    6    9 1
    10    1   11 1
    11    1   12 1
    12    1   13 1
    13    2   14 1
    14    2   15 1
    15    2   16 1
    16    3   17 1
    17    3   18 1
    18    3   19 1
    19    4   20 1
    20    5   21 1
    21    7   22 1
    22    8   23 1
    23    9   24 1
@<TRIPOS>SUBSTRUCTURE
     1 <0>         1 GROUP 0 A     ****
