@<TRIPOS>MOLECULE
AlkEthOH_c825
   31    30     1     0     0
SMALL
USER_CHARGES

@<TRIPOS>ATOM
      1 C1         -0.5408   -1.8731    6.0377 CT        1 <0>       -0.12286
      2 C2         -2.7700    0.5302    2.0220 CT        1 <0>       -0.08738
      3 C3         -1.0734    0.0831    0.2464 CT        1 <0>       -0.08738
      4 C4         -0.4568    1.4451    2.2296 CT        1 <0>       -0.08738
      5 C5         -1.5818   -2.3500    2.0992 CT        1 <0>       -0.11993
      6 C6          0.6954   -1.3708    2.3753 CT        1 <0>       -0.11993
      7 C7         -1.0543   -2.1437    4.6316 CT        1 <0>        0.32951
      8 C8         -1.2802    0.2165    1.7742 CT        1 <0>       -0.03778
      9 C9         -0.8096   -1.0895    2.5249 CT        1 <0>        0.17204
     10 O1         -2.3470   -2.7384    4.6975 OH        1 <0>       -0.62553
     11 O2         -1.0583   -0.9070    3.9289 OS        1 <0>       -0.45615
     12 H1         -1.1934   -1.1682    6.5624 HC        1 <0>        0.05072
     13 H2         -0.5194   -2.7966    6.6271 HC        1 <0>        0.05072
     14 H3          0.4782   -1.4746    6.0128 HC        1 <0>        0.05072
     15 H4         -2.9738    0.6356    3.0944 HC        1 <0>        0.03712
     16 H5         -3.0736    1.4679    1.5463 HC        1 <0>        0.03712
     17 H6         -3.4213   -0.2670    1.6505 HC        1 <0>        0.03712
     18 H7         -0.0317   -0.1409   -0.0048 HC        1 <0>        0.03712
     19 H8         -1.6791   -0.7344   -0.1628 HC        1 <0>        0.03712
     20 H9         -1.3625    0.9978   -0.2820 HC        1 <0>        0.03712
     21 H10         0.6163    1.2786    2.0762 HC        1 <0>        0.03712
     22 H11        -0.7201    2.3436    1.6626 HC        1 <0>        0.03712
     23 H12        -0.6037    1.6584    3.2936 HC        1 <0>        0.03712
     24 H13        -2.6631   -2.1896    2.1918 HC        1 <0>        0.04499
     25 H14        -1.3232   -3.2203    2.7089 HC        1 <0>        0.04499
     26 H15        -1.4142   -2.5905    1.0447 HC        1 <0>        0.04499
     27 H16         1.3083   -0.5121    2.6625 HC        1 <0>        0.04499
     28 H17         1.0043   -2.2416    2.9616 HC        1 <0>        0.04499
     29 H18         0.9399   -1.6198    1.3353 HC        1 <0>        0.04499
     30 H19        -0.3796   -2.8511    4.1361 H2        1 <0>        0.07377
     31 H20        -2.9428   -2.1218    5.1550 HO        1 <0>        0.41282
@<TRIPOS>BOND
     1    1    7 1
     2    2    8 1
     3    3    8 1
     4    4    8 1
     5    5    9 1
     6    6    9 1
     7    7   10 1
     8    7   11 1
     9    8    9 1
    10    9   11 1
    11    1   12 1
    12    1   13 1
    13    1   14 1
    14    2   15 1
    15    2   16 1
    16    2   17 1
    17    3   18 1
    18    3   19 1
    19    3   20 1
    20    4   21 1
    21    4   22 1
    22    4   23 1
    23    5   24 1
    24    5   25 1
    25    5   26 1
    26    6   27 1
    27    6   28 1
    28    6   29 1
    29    7   30 1
    30   10   31 1
@<TRIPOS>SUBSTRUCTURE
     1 <0>         1 GROUP 0 A     ****
