@<TRIPOS>MOLECULE
AlkEthOH_c1171
   26    25     1     0     0
SMALL
USER_CHARGES

@<TRIPOS>ATOM
      1 C1         -1.1923   -1.7756   -3.1597 CT        1 <0>       -0.09500
      2 C2         -1.3702    0.1510    1.4996 CT        1 <0>       -0.11924
      3 C3         -0.7338    2.0525    0.0044 CT        1 <0>       -0.11924
      4 C4          1.0853   -1.3998    0.4898 CT        1 <0>       -0.14395
      5 C5         -0.0365   -1.4548   -2.2362 CT        1 <0>        0.13145
      6 C6         -0.2089    0.8053    0.7361 CT        1 <0>        0.17833
      7 C7          0.4975   -0.1848   -0.2470 CT        1 <0>        0.35281
      8 O1          0.7516    1.2512    1.7018 OH        1 <0>       -0.59969
      9 O2          1.5701    0.5395   -0.8662 OH        1 <0>       -0.60180
     10 O3         -0.4915   -0.5842   -1.2112 OS        1 <0>       -0.44428
     11 H1         -2.0012   -2.2705   -2.6150 HC        1 <0>        0.04534
     12 H2         -1.5833   -0.8624   -3.6204 HC        1 <0>        0.04534
     13 H3         -0.8646   -2.4285   -3.9755 HC        1 <0>        0.04534
     14 H4         -1.0525   -0.7453    2.0412 HC        1 <0>        0.04985
     15 H5         -2.1736   -0.1364    0.8108 HC        1 <0>        0.04985
     16 H6         -1.8252    0.8494    2.2094 HC        1 <0>        0.04985
     17 H7          0.0566    2.5592   -0.5580 HC        1 <0>        0.04985
     18 H8         -1.5325    1.7841   -0.6973 HC        1 <0>        0.04985
     19 H9         -1.1786    2.7675    0.7051 HC        1 <0>        0.04985
     20 H10         1.5790   -2.0915   -0.1993 HC        1 <0>        0.05677
     21 H11         1.8378   -1.0901    1.2238 HC        1 <0>        0.05677
     22 H12         0.3188   -1.9375    1.0572 HC        1 <0>        0.05677
     23 H13         0.7689   -0.9600   -2.7870 H1        1 <0>        0.02478
     24 H14         0.3523   -2.3681   -1.7761 H1        1 <0>        0.02478
     25 H15         0.2887    1.8850    2.2676 HO        1 <0>        0.40414
     26 H16         2.0198   -0.0506   -1.4936 HO        1 <0>        0.40148
@<TRIPOS>BOND
     1    1    5 1
     2    2    6 1
     3    3    6 1
     4    4    7 1
     5    5   10 1
     6    6    7 1
     7    6    8 1
     8    7    9 1
     9    7   10 1
    10    1   11 1
    11    1   12 1
    12    1   13 1
    13    2   14 1
    14    2   15 1
    15    2   16 1
    16    3   17 1
    17    3   18 1
    18    3   19 1
    19    4   20 1
    20    4   21 1
    21    4   22 1
    22    5   23 1
    23    5   24 1
    24    8   25 1
    25    9   26 1
@<TRIPOS>SUBSTRUCTURE
     1 <0>         1 GROUP 0 A     ****
