@<TRIPOS>MOLECULE
AlkEthOH_c143
   27    26     1     0     0
SMALL
USER_CHARGES

@<TRIPOS>ATOM
      1 C1         -1.9348    0.8292   -0.0809 CT        1 <0>       -0.08885
      2 C2         -0.4942    0.5794    1.9316 CT        1 <0>       -0.08885
      3 C3          0.2360    2.0291    0.0483 CT        1 <0>       -0.08885
      4 C4          0.2885   -0.4453   -1.8319 CT        1 <0>       -0.08826
      5 C5         -0.4680   -1.8930    0.0383 CT        1 <0>       -0.08826
      6 C6          1.7334   -0.7012    0.2185 CT        1 <0>        0.13255
      7 C7         -0.4657    0.6909    0.3877 CT        1 <0>       -0.04439
      8 C8          0.2650   -0.5658   -0.2863 CT        1 <0>       -0.03462
      9 O1          2.3835   -1.8609   -0.2956 OH        1 <0>       -0.60381
     10 H1         -1.9910    0.9135   -1.1732 HC        1 <0>        0.03446
     11 H2         -2.4109    1.7274    0.3249 HC        1 <0>        0.03446
     12 H3         -2.5386   -0.0378    0.2021 HC        1 <0>        0.03446
     13 H4          0.5090    0.4773    2.3550 HC        1 <0>        0.03446
     14 H5         -1.0636   -0.3026    2.2497 HC        1 <0>        0.03446
     15 H6         -0.9749    1.4470    2.3940 HC        1 <0>        0.03446
     16 H7          1.2888    2.0305    0.3438 HC        1 <0>        0.03446
     17 H8         -0.2407    2.8648    0.5756 HC        1 <0>        0.03446
     18 H9          0.1780    2.2612   -1.0197 HC        1 <0>        0.03446
     19 H10         0.7917    0.4709   -2.1572 HC        1 <0>        0.03964
     20 H11         0.8241   -1.2837   -2.2925 HC        1 <0>        0.03964
     21 H12        -0.7175   -0.4527   -2.2604 HC        1 <0>        0.03964
     22 H13        -0.5354   -2.0681    1.1158 HC        1 <0>        0.03964
     23 H14        -1.4808   -1.9106   -0.3759 HC        1 <0>        0.03964
     24 H15         0.0553   -2.7546   -0.3926 HC        1 <0>        0.03964
     25 H16         2.3428    0.1639   -0.0580 H1        1 <0>        0.02425
     26 H17         1.7635   -0.7952    1.3079 H1        1 <0>        0.02425
     27 H18         3.2816   -1.8588    0.0701 HO        1 <0>        0.39686
@<TRIPOS>BOND
     1    1    7 1
     2    2    7 1
     3    3    7 1
     4    4    8 1
     5    5    8 1
     6    6    8 1
     7    6    9 1
     8    7    8 1
     9    1   10 1
    10    1   11 1
    11    1   12 1
    12    2   13 1
    13    2   14 1
    14    2   15 1
    15    3   16 1
    16    3   17 1
    17    3   18 1
    18    4   19 1
    19    4   20 1
    20    4   21 1
    21    5   22 1
    22    5   23 1
    23    5   24 1
    24    6   25 1
    25    6   26 1
    26    9   27 1
@<TRIPOS>SUBSTRUCTURE
     1 <0>         1 GROUP 0 A     ****
