@<TRIPOS>MOLECULE
AlkEthOH_c1036
   27    26     1     0     0
SMALL
USER_CHARGES

@<TRIPOS>ATOM
      1 C1          1.3758    2.6217    1.1991 CT        1 <0>       -0.09173
      2 C2          1.4741   -1.5100   -0.6023 CT        1 <0>       -0.08909
      3 C3         -0.4894   -2.0249    0.8401 CT        1 <0>       -0.08909
      4 C4          1.1638    1.4767    0.2185 CT        1 <0>       -0.08160
      5 C5          0.4848    0.2830    0.8994 CT        1 <0>       -0.06943
      6 C6         -0.7619   -0.5595   -1.2102 CT        1 <0>       -0.07492
      7 C7         -2.0908    0.0916   -0.8374 CT        1 <0>        0.13207
      8 C8          0.1675   -0.9267   -0.0235 CT        1 <0>       -0.04852
      9 O1         -2.8255    0.3340   -2.0324 OH        1 <0>       -0.60478
     10 H1          0.4253    2.9486    1.6325 HC        1 <0>        0.03254
     11 H2          1.8426    3.4798    0.7050 HC        1 <0>        0.03254
     12 H3          2.0300    2.3037    2.0169 HC        1 <0>        0.03254
     13 H4          1.9926   -0.7760   -1.2294 HC        1 <0>        0.03491
     14 H5          1.2867   -2.3999   -1.2119 HC        1 <0>        0.03491
     15 H6          2.1618   -1.8054    0.1987 HC        1 <0>        0.03491
     16 H7         -1.4282   -1.6822    1.2874 HC        1 <0>        0.03491
     17 H8          0.1705   -2.3263    1.6619 HC        1 <0>        0.03491
     18 H9         -0.7072   -2.9195    0.2460 HC        1 <0>        0.03491
     19 H10         2.1366    1.1833   -0.1888 HC        1 <0>        0.04162
     20 H11         0.5549    1.8417   -0.6147 HC        1 <0>        0.04162
     21 H12         1.1298   -0.0592    1.7208 HC        1 <0>        0.03757
     22 H13        -0.4403    0.6304    1.3772 HC        1 <0>        0.03757
     23 H14        -0.9767   -1.4631   -1.7983 HC        1 <0>        0.05467
     24 H15        -0.2352    0.1008   -1.9120 HC        1 <0>        0.05467
     25 H16        -2.6919   -0.5611   -0.1987 H1        1 <0>        0.02240
     26 H17        -1.9419    1.0504   -0.3338 H1        1 <0>        0.02240
     27 H18        -3.6620    0.7466   -1.7654 HO        1 <0>        0.39749
@<TRIPOS>BOND
     1    1    4 1
     2    2    8 1
     3    3    8 1
     4    4    5 1
     5    5    8 1
     6    6    7 1
     7    6    8 1
     8    7    9 1
     9    1   10 1
    10    1   11 1
    11    1   12 1
    12    2   13 1
    13    2   14 1
    14    2   15 1
    15    3   16 1
    16    3   17 1
    17    3   18 1
    18    4   19 1
    19    4   20 1
    20    5   21 1
    21    5   22 1
    22    6   23 1
    23    6   24 1
    24    7   25 1
    25    7   26 1
    26    9   27 1
@<TRIPOS>SUBSTRUCTURE
     1 <0>         1 GROUP 0 A     ****
