@<TRIPOS>MOLECULE
AlkEthOH_c1059
   25    24     1     0     0
SMALL
USER_CHARGES

@<TRIPOS>ATOM
      1 C1         -0.3218    1.4261   -2.4509 CT        1 <0>       -0.09187
      2 C2         -0.8546   -1.7622    0.7821 CT        1 <0>       -0.12725
      3 C3          1.2213    2.1096    2.8571 CT        1 <0>        0.11455
      4 C4         -0.5088    0.9374   -1.0217 CT        1 <0>       -0.07581
      5 C5          0.4913   -0.1684   -0.6787 CT        1 <0>       -0.10022
      6 C6          0.2048    0.2438    1.8530 CT        1 <0>        0.14039
      7 C7          0.3265   -0.7904    0.7250 CT        1 <0>        0.15553
      8 O1          1.5026   -1.5741    0.9781 OH        1 <0>       -0.58844
      9 O2          1.3152    1.1335    1.8294 OS        1 <0>       -0.40549
     10 H1          0.6948    1.8005   -2.6078 HC        1 <0>        0.03358
     11 H2         -1.0205    2.2403   -2.6672 HC        1 <0>        0.03358
     12 H3         -0.5067    0.6203   -3.1683 HC        1 <0>        0.03358
     13 H4         -0.9765   -2.2063    1.7746 HC        1 <0>        0.04363
     14 H5         -1.7885   -1.2575    0.5092 HC        1 <0>        0.04363
     15 H6         -0.7228   -2.5760    0.0592 HC        1 <0>        0.04363
     16 H7          2.0875    2.7740    2.8099 H1        1 <0>        0.03236
     17 H8          1.1821    1.6131    3.8300 H1        1 <0>        0.03236
     18 H9          0.3091    2.6930    2.7110 H1        1 <0>        0.03236
     19 H10        -1.5351    0.5730   -0.9085 HC        1 <0>        0.04136
     20 H11        -0.3853    1.7874   -0.3425 HC        1 <0>        0.04136
     21 H12         1.5127    0.2208   -0.7868 HC        1 <0>        0.05119
     22 H13         0.4193   -0.9680   -1.4290 HC        1 <0>        0.05119
     23 H14         0.2032   -0.2514    2.8303 H1        1 <0>        0.03423
     24 H15        -0.7114    0.8353    1.7581 H1        1 <0>        0.03423
     25 H16         1.5340   -2.2398    0.2777 HO        1 <0>        0.39634
@<TRIPOS>BOND
     1    1    4 1
     2    2    7 1
     3    3    9 1
     4    4    5 1
     5    5    7 1
     6    6    7 1
     7    6    9 1
     8    7    8 1
     9    1   10 1
    10    1   11 1
    11    1   12 1
    12    2   13 1
    13    2   14 1
    14    2   15 1
    15    3   16 1
    16    3   17 1
    17    3   18 1
    18    4   19 1
    19    4   20 1
    20    5   21 1
    21    5   22 1
    22    6   23 1
    23    6   24 1
    24    8   25 1
@<TRIPOS>SUBSTRUCTURE
     1 <0>         1 GROUP 0 A     ****
