@<TRIPOS>MOLECULE
AlkEthOH_c569
   20    19     1     0     0
SMALL
USER_CHARGES

@<TRIPOS>ATOM
      1 C1         -0.6078   -0.6258   -3.2291 CT        1 <0>       -0.10733
      2 C2          1.6272   -0.6731   -2.0656 CT        1 <0>       -0.10733
      3 C3         -1.9106    0.7289    0.7346 CT        1 <0>        0.10676
      4 C4          0.1224   -0.8317   -1.9108 CT        1 <0>        0.14322
      5 C5         -1.4864   -0.3672   -0.2336 CT        1 <0>        0.33096
      6 O1         -2.2405    1.9019    0.0039 OH        1 <0>       -0.59504
      7 O2         -1.1788   -1.5235    0.5371 OH        1 <0>       -0.62376
      8 O3         -0.3524    0.1127   -0.9607 OS        1 <0>       -0.41302
      9 H1         -0.4038    0.3653   -3.6456 HC        1 <0>        0.04324
     10 H2         -0.2984   -1.3824   -3.9582 HC        1 <0>        0.04324
     11 H3         -1.6904   -0.7365   -3.1020 HC        1 <0>        0.04324
     12 H4          1.8846    0.3169   -2.4543 HC        1 <0>        0.04324
     13 H5          2.0219   -1.4314   -2.7502 HC        1 <0>        0.04324
     14 H6          2.1393   -0.8173   -1.1078 HC        1 <0>        0.04324
     15 H7         -2.7842    0.4183    1.3173 H1        1 <0>        0.04254
     16 H8         -1.1001    0.9710    1.4308 H1        1 <0>        0.04254
     17 H9         -0.1017   -1.8300   -1.5209 H1        1 <0>        0.05540
     18 H10        -2.3096   -0.5872   -0.9250 H2        1 <0>        0.04904
     19 H11        -2.5043    2.5728    0.6545 HO        1 <0>        0.40749
     20 H12        -1.9846   -1.7692    1.0222 HO        1 <0>        0.40909
@<TRIPOS>BOND
     1    1    4 1
     2    2    4 1
     3    3    5 1
     4    3    6 1
     5    4    8 1
     6    5    7 1
     7    5    8 1
     8    1    9 1
     9    1   10 1
    10    1   11 1
    11    2   12 1
    12    2   13 1
    13    2   14 1
    14    3   15 1
    15    3   16 1
    16    4   17 1
    17    5   18 1
    18    6   19 1
    19    7   20 1
@<TRIPOS>SUBSTRUCTURE
     1 <0>         1 GROUP 0 A     ****
