@<TRIPOS>MOLECULE
AlkEthOH_c129
   26    25     1     0     0
SMALL
USER_CHARGES

@<TRIPOS>ATOM
      1 C1         -1.7562   -2.1655    0.6235 CT        1 <0>       -0.12366
      2 C2         -0.5833   -2.8973   -1.4641 CT        1 <0>       -0.12366
      3 C3         -3.4862   -1.7616   -1.9060 CT        1 <0>       -0.12162
      4 C4         -2.6891    0.4050   -0.9365 CT        1 <0>       -0.12162
      5 C5         -2.5947   -0.2750   -3.8270 CT        1 <0>        0.32868
      6 C6         -1.1921   -1.6962   -0.7274 CT        1 <0>        0.16603
      7 C7         -2.2445   -0.9158   -1.5800 CT        1 <0>        0.17680
      8 O1         -2.0407    0.3717   -4.9638 OH        1 <0>       -0.58418
      9 O2         -0.1155   -0.7914   -0.4312 OH        1 <0>       -0.58796
     10 O3         -1.6290   -0.5880   -2.8368 OS        1 <0>       -0.39838
     11 H1         -2.2011   -1.3345    1.1816 HC        1 <0>        0.04562
     12 H2         -2.5075   -2.9518    0.5057 HC        1 <0>        0.04562
     13 H3         -0.9561   -2.5601    1.2616 HC        1 <0>        0.04562
     14 H4         -0.1658   -2.6175   -2.4355 HC        1 <0>        0.04562
     15 H5          0.1983   -3.3796   -0.8685 HC        1 <0>        0.04562
     16 H6         -1.3425   -3.6696   -1.6371 HC        1 <0>        0.04562
     17 H7         -3.2238   -2.7175   -2.3685 HC        1 <0>        0.04765
     18 H8         -4.0588   -1.9764   -0.9957 HC        1 <0>        0.04765
     19 H9         -4.1719   -1.2255   -2.5710 HC        1 <0>        0.04765
     20 H10        -1.8323    1.0391   -0.6879 HC        1 <0>        0.04765
     21 H11        -3.2971    0.9905   -1.6368 HC        1 <0>        0.04765
     22 H12        -3.2842    0.2444   -0.0330 HC        1 <0>        0.04765
     23 H13        -3.4170    0.3216   -3.4153 H2        1 <0>        0.01398
     24 H14        -3.0129   -1.2266   -4.1674 H2        1 <0>        0.01398
     25 H15        -2.7715    0.5446   -5.5811 HO        1 <0>        0.40355
     26 H16         0.5260   -1.3023    0.0799 HO        1 <0>        0.39844
@<TRIPOS>BOND
     1    1    6 1
     2    2    6 1
     3    3    7 1
     4    4    7 1
     5    5    8 1
     6    5   10 1
     7    6    7 1
     8    6    9 1
     9    7   10 1
    10    1   11 1
    11    1   12 1
    12    1   13 1
    13    2   14 1
    14    2   15 1
    15    2   16 1
    16    3   17 1
    17    3   18 1
    18    3   19 1
    19    4   20 1
    20    4   21 1
    21    4   22 1
    22    5   23 1
    23    5   24 1
    24    8   25 1
    25    9   26 1
@<TRIPOS>SUBSTRUCTURE
     1 <0>         1 GROUP 0 A     ****
