@<TRIPOS>MOLECULE
AlkEthOH_c44
   28    27     1     0     0
SMALL
USER_CHARGES

@<TRIPOS>ATOM
      1 C1          2.5392   -0.3893   -1.3308 CT        1 <0>       -0.12553
      2 C2         -2.0078   -0.4368   -0.3024 CT        1 <0>       -0.08883
      3 C3         -0.6715   -1.2084    1.6387 CT        1 <0>       -0.08883
      4 C4         -1.5117    1.1339    1.5673 CT        1 <0>       -0.08883
      5 C5          0.2016    1.6005   -1.0151 CT        1 <0>       -0.08440
      6 C6          1.1560   -0.7478   -0.7797 CT        1 <0>        0.11485
      7 C7         -0.9150    0.0037    0.7011 CT        1 <0>       -0.06818
      8 C8          0.4306    0.4242   -0.0444 CT        1 <0>        0.17631
      9 O1          0.3678   -1.2322   -1.8607 OH        1 <0>       -0.59680
     10 O2          1.3476    0.9258    0.9466 OH        1 <0>       -0.60019
     11 H1          2.4949    0.4349   -2.0482 HC        1 <0>        0.04677
     12 H2          3.0218   -1.2517   -1.8016 HC        1 <0>        0.04677
     13 H3          3.2003   -0.0870   -0.5102 HC        1 <0>        0.04677
     14 H4         -2.2521    0.3584   -1.0138 HC        1 <0>        0.03787
     15 H5         -1.6779   -1.3034   -0.8881 HC        1 <0>        0.03787
     16 H6         -2.9290   -0.7378    0.2067 HC        1 <0>        0.03787
     17 H7          0.0923   -0.9969    2.3927 HC        1 <0>        0.03787
     18 H8         -1.5860   -1.4733    2.1837 HC        1 <0>        0.03787
     19 H9         -0.3632   -2.0989    1.0809 HC        1 <0>        0.03787
     20 H10        -0.7959    1.5032    2.3079 HC        1 <0>        0.03787
     21 H11        -2.3859    0.7754    2.1249 HC        1 <0>        0.03787
     22 H12        -1.8542    1.9801    0.9669 HC        1 <0>        0.03787
     23 H13        -0.3057    2.4376   -0.5268 HC        1 <0>        0.04991
     24 H14        -0.3798    1.3077   -1.8939 HC        1 <0>        0.04991
     25 H15         1.1535    2.0181   -1.3617 HC        1 <0>        0.04991
     26 H16         1.3116   -1.5749   -0.0787 H1        1 <0>        0.02337
     27 H17         0.8256   -2.0127   -2.2114 HO        1 <0>        0.39895
     28 H18         1.4961    0.1941    1.5589 HO        1 <0>        0.39724
@<TRIPOS>BOND
     1    1    6 1
     2    2    7 1
     3    3    7 1
     4    4    7 1
     5    5    8 1
     6    6    8 1
     7    6    9 1
     8    7    8 1
     9    8   10 1
    10    1   11 1
    11    1   12 1
    12    1   13 1
    13    2   14 1
    14    2   15 1
    15    2   16 1
    16    3   17 1
    17    3   18 1
    18    3   19 1
    19    4   20 1
    20    4   21 1
    21    4   22 1
    22    5   23 1
    23    5   24 1
    24    5   25 1
    25    6   26 1
    26    9   27 1
    27   10   28 1
@<TRIPOS>SUBSTRUCTURE
     1 <0>         1 GROUP 0 A     ****
