@<TRIPOS>MOLECULE
AlkEthOH_c1197
   28    27     1     0     0
SMALL
USER_CHARGES

@<TRIPOS>ATOM
      1 C1          4.4903   -2.3145    1.5712 CT        1 <0>       -0.09631
      2 C2          3.6323   -1.7688   -3.0146 CT        1 <0>       -0.10573
      3 C3          2.5869    0.4095   -3.7315 CT        1 <0>       -0.10573
      4 C4          0.8744   -0.5011    0.4304 CT        1 <0>       -0.10874
      5 C5          2.2795    1.3868   -0.3616 CT        1 <0>       -0.10874
      6 C6          3.1860   -1.9356    0.9027 CT        1 <0>        0.13556
      7 C7          3.0675   -0.4320   -2.5590 CT        1 <0>        0.14613
      8 C8          2.1510   -0.1426   -0.3425 CT        1 <0>        0.34614
      9 O1          3.3175   -0.6412    0.3318 OS        1 <0>       -0.45360
     10 O2          1.9818   -0.6610   -1.6715 OS        1 <0>       -0.45095
     11 H1          5.3089   -2.3344    0.8463 HC        1 <0>        0.04296
     12 H2          4.7384   -1.6024    2.3651 HC        1 <0>        0.04296
     13 H3          4.4108   -3.3003    2.0413 HC        1 <0>        0.04296
     14 H4          2.8884   -2.3444   -3.5737 HC        1 <0>        0.04073
     15 H5          4.5082   -1.6144   -3.6539 HC        1 <0>        0.04073
     16 H6          3.9685   -2.3668   -2.1603 HC        1 <0>        0.04073
     17 H7          1.8181   -0.1142   -4.3077 HC        1 <0>        0.04073
     18 H8          3.4229    0.6470   -4.3981 HC        1 <0>        0.04073
     19 H9          2.1769    1.3658   -3.3884 HC        1 <0>        0.04073
     20 H10         0.7263   -1.5849    0.4791 HC        1 <0>        0.05228
     21 H11         0.9039   -0.0964    1.4483 HC        1 <0>        0.05228
     22 H12        -0.0117   -0.0653   -0.0449 HC        1 <0>        0.05228
     23 H13         3.1764    1.7069   -0.9019 HC        1 <0>        0.05228
     24 H14         1.3990    1.8500   -0.8209 HC        1 <0>        0.05228
     25 H15         2.3411    1.7915    0.6548 HC        1 <0>        0.05228
     26 H16         2.3716   -1.9175    1.6331 H1        1 <0>        0.03058
     27 H17         2.9401   -2.6475    0.1092 H1        1 <0>        0.03058
     28 H18         3.8341    0.1186   -2.0040 H1        1 <0>        0.05387
@<TRIPOS>BOND
     1    1    6 1
     2    2    7 1
     3    3    7 1
     4    4    8 1
     5    5    8 1
     6    6    9 1
     7    7   10 1
     8    8    9 1
     9    8   10 1
    10    1   11 1
    11    1   12 1
    12    1   13 1
    13    2   14 1
    14    2   15 1
    15    2   16 1
    16    3   17 1
    17    3   18 1
    18    3   19 1
    19    4   20 1
    20    4   21 1
    21    4   22 1
    22    5   23 1
    23    5   24 1
    24    5   25 1
    25    6   26 1
    26    6   27 1
    27    7   28 1
@<TRIPOS>SUBSTRUCTURE
     1 <0>         1 GROUP 0 A     ****
