@<TRIPOS>MOLECULE
AlkEthOH_c1194
   31    30     1     0     0
SMALL
USER_CHARGES

@<TRIPOS>ATOM
      1 C1          4.5902   -1.0892    2.3044 CT        1 <0>       -0.09834
      2 C2          2.8900   -2.8093   -1.1280 CT        1 <0>       -0.10605
      3 C3          2.5966   -2.0481   -3.5036 CT        1 <0>       -0.10605
      4 C4          4.3284   -0.9594   -2.0463 CT        1 <0>       -0.10605
      5 C5          0.8744   -0.5011    0.4304 CT        1 <0>       -0.12601
      6 C6          2.2795    1.3868   -0.3616 CT        1 <0>       -0.12601
      7 C7          3.3011   -0.5237    1.7476 CT        1 <0>        0.14004
      8 C8          2.9496   -1.6170   -2.0817 CT        1 <0>        0.18500
      9 C9          2.1510   -0.1426   -0.3425 CT        1 <0>        0.36714
     10 O1          3.3175   -0.6412    0.3318 OS        1 <0>       -0.44960
     11 O2          1.9818   -0.6610   -1.6715 OS        1 <0>       -0.44291
     12 H1          4.6977   -2.1457    2.0432 HC        1 <0>        0.04548
     13 H2          5.4531   -0.5391    1.9149 HC        1 <0>        0.04548
     14 H3          4.6156   -0.9906    3.3947 HC        1 <0>        0.04548
     15 H4          3.1428   -2.5040   -0.1063 HC        1 <0>        0.04284
     16 H5          1.8961   -3.2684   -1.1178 HC        1 <0>        0.04284
     17 H6          3.6217   -3.5742   -1.4120 HC        1 <0>        0.04284
     18 H7          2.6381   -1.1957   -4.1914 HC        1 <0>        0.04284
     19 H8          1.5717   -2.4336   -3.5515 HC        1 <0>        0.04284
     20 H9          3.2763   -2.8236   -3.8712 HC        1 <0>        0.04284
     21 H10         4.3714   -0.1041   -2.7304 HC        1 <0>        0.04284
     22 H11         4.5831   -0.6104   -1.0403 HC        1 <0>        0.04284
     23 H12         5.1030   -1.6602   -2.3783 HC        1 <0>        0.04284
     24 H13         0.7263   -1.5849    0.4791 HC        1 <0>        0.04851
     25 H14         0.9039   -0.0964    1.4483 HC        1 <0>        0.04851
     26 H15        -0.0117   -0.0653   -0.0449 HC        1 <0>        0.04851
     27 H16         3.1764    1.7069   -0.9019 HC        1 <0>        0.04851
     28 H17         1.3990    1.8500   -0.8209 HC        1 <0>        0.04851
     29 H18         2.3411    1.7915    0.6548 HC        1 <0>        0.04851
     30 H19         3.1997    0.5331    2.0124 H1        1 <0>        0.02789
     31 H20         2.4400   -1.0749    2.1371 H1        1 <0>        0.02789
@<TRIPOS>BOND
     1    1    7 1
     2    2    8 1
     3    3    8 1
     4    4    8 1
     5    5    9 1
     6    6    9 1
     7    7   10 1
     8    8   11 1
     9    9   10 1
    10    9   11 1
    11    1   12 1
    12    1   13 1
    13    1   14 1
    14    2   15 1
    15    2   16 1
    16    2   17 1
    17    3   18 1
    18    3   19 1
    19    3   20 1
    20    4   21 1
    21    4   22 1
    22    4   23 1
    23    5   24 1
    24    5   25 1
    25    5   26 1
    26    6   27 1
    27    6   28 1
    28    6   29 1
    29    7   30 1
    30    7   31 1
@<TRIPOS>SUBSTRUCTURE
     1 <0>         1 GROUP 0 A     ****
