@<TRIPOS>MOLECULE
AlkEthOH_c642
   26    25     1     0     0
SMALL
USER_CHARGES

@<TRIPOS>ATOM
      1 C1         -2.2051   -0.8453   -1.6663 CT        1 <0>       -0.13202
      2 C2          0.2351    1.3591    1.4990 CT        1 <0>       -0.12841
      3 C3          4.1716   -0.2868   -0.8060 CT        1 <0>        0.11404
      4 C4         -0.0530   -0.0751   -0.6008 CT        1 <0>       -0.05945
      5 C5          2.2563    0.5183    0.2925 CT        1 <0>        0.09190
      6 C6         -1.5010   -0.5286   -0.3514 CT        1 <0>        0.14669
      7 C7          0.7962    0.2047    0.6649 CT        1 <0>        0.16469
      8 O1         -1.5089   -1.6978    0.4601 OH        1 <0>       -0.56877
      9 O2          0.8032   -0.9536    1.5038 OH        1 <0>       -0.55178
     10 O3          2.8110   -0.5376   -0.4843 OS        1 <0>       -0.40601
     11 H1         -1.6650   -1.6270   -2.2114 HC        1 <0>        0.04125
     12 H2         -3.2307   -1.1866   -1.4963 HC        1 <0>        0.04125
     13 H3         -2.2294    0.0333   -2.3202 HC        1 <0>        0.04125
     14 H4          0.8553    1.5336    2.3863 HC        1 <0>        0.04294
     15 H5          0.1921    2.2886    0.9224 HC        1 <0>        0.04294
     16 H6         -0.7664    1.1312    1.8792 HC        1 <0>        0.04294
     17 H7          4.5647   -1.1147   -1.4009 H1        1 <0>        0.03293
     18 H8          4.7506   -0.1784    0.1146 H1        1 <0>        0.03293
     19 H9          4.2353    0.6375   -1.3851 H1        1 <0>        0.03293
     20 H10        -0.0683    0.8262   -1.2269 HC        1 <0>        0.06354
     21 H11         0.4423   -0.8673   -1.1783 HC        1 <0>        0.06354
     22 H12         2.3228    1.4431   -0.2905 H1        1 <0>        0.02744
     23 H13         2.8722    0.6189    1.1929 H1        1 <0>        0.02744
     24 H14        -2.0620    0.2536    0.1698 H1        1 <0>        0.02131
     25 H15        -2.4400   -1.9287    0.6061 HO        1 <0>        0.38662
     26 H16         1.3711   -0.7387    2.2581 HO        1 <0>        0.38787
@<TRIPOS>BOND
     1    1    6 1
     2    2    7 1
     3    3   10 1
     4    4    6 1
     5    4    7 1
     6    5    7 1
     7    5   10 1
     8    6    8 1
     9    7    9 1
    10    1   11 1
    11    1   12 1
    12    1   13 1
    13    2   14 1
    14    2   15 1
    15    2   16 1
    16    3   17 1
    17    3   18 1
    18    3   19 1
    19    4   20 1
    20    4   21 1
    21    5   22 1
    22    5   23 1
    23    6   24 1
    24    8   25 1
    25    9   26 1
@<TRIPOS>SUBSTRUCTURE
     1 <0>         1 GROUP 0 A     ****
