@<TRIPOS>MOLECULE
AlkEthOH_c1191
   25    24     1     0     0
SMALL
USER_CHARGES

@<TRIPOS>ATOM
      1 C1         -2.1587   -0.6046    4.7180 CT        1 <0>       -0.09675
      2 C2         -0.4921    0.1122    0.9716 CT        1 <0>       -0.09735
      3 C3          1.6723    0.5912    2.1500 CT        1 <0>       -0.09735
      4 C4          2.1851   -3.3414    0.9289 CT        1 <0>        0.11525
      5 C5         -1.4585   -0.8634    3.4011 CT        1 <0>        0.12618
      6 C6          0.7921   -1.7855    2.0067 CT        1 <0>        0.10149
      7 C7          0.4298   -0.2995    2.1208 CT        1 <0>        0.15583
      8 O1          1.8456   -1.9690    1.0676 OS        1 <0>       -0.41487
      9 O2         -0.2710   -0.0901    3.3496 OS        1 <0>       -0.42343
     10 H1         -1.5216   -0.8870    5.5608 HC        1 <0>        0.04413
     11 H2         -2.4227    0.4537    4.8134 HC        1 <0>        0.04413
     12 H3         -3.0934   -1.1723    4.7761 HC        1 <0>        0.04413
     13 H4         -1.3862   -0.5210    0.9424 HC        1 <0>        0.04728
     14 H5         -0.8084    1.1564    1.0628 HC        1 <0>        0.04728
     15 H6          0.0077   -0.0148    0.0045 HC        1 <0>        0.04728
     16 H7          2.3454    0.3108    2.9678 HC        1 <0>        0.04728
     17 H8          1.3962    1.6368    2.3298 HC        1 <0>        0.04728
     18 H9          2.2270    0.5381    1.2076 HC        1 <0>        0.04728
     19 H10         2.9948   -3.4456    0.2025 H1        1 <0>        0.03357
     20 H11         1.3083   -3.9027    0.5963 H1        1 <0>        0.03357
     21 H12         2.5155   -3.7254    1.8970 H1        1 <0>        0.03357
     22 H13        -2.1010   -0.5789    2.5624 H1        1 <0>        0.02390
     23 H14        -1.1947   -1.9211    3.3077 H1        1 <0>        0.02390
     24 H15         1.1389   -2.1760    2.9697 H1        1 <0>        0.03321
     25 H16        -0.0689   -2.3748    1.6736 H1        1 <0>        0.03321
@<TRIPOS>BOND
     1    1    5 1
     2    2    7 1
     3    3    7 1
     4    4    8 1
     5    5    9 1
     6    6    7 1
     7    6    8 1
     8    7    9 1
     9    1   10 1
    10    1   11 1
    11    1   12 1
    12    2   13 1
    13    2   14 1
    14    2   15 1
    15    3   16 1
    16    3   17 1
    17    3   18 1
    18    4   19 1
    19    4   20 1
    20    4   21 1
    21    5   22 1
    22    5   23 1
    23    6   24 1
    24    6   25 1
@<TRIPOS>SUBSTRUCTURE
     1 <0>         1 GROUP 0 A     ****
