@<TRIPOS>MOLECULE
AlkEthOH_c248
   24    23     1     0     0
SMALL
USER_CHARGES

@<TRIPOS>ATOM
      1 C1          2.2205   -0.5138   -0.7736 CT        1 <0>       -0.13041
      2 C2          2.5705    1.0386    1.1471 CT        1 <0>       -0.13041
      3 C3         -1.8937   -0.3458    0.5098 CT        1 <0>       -0.10648
      4 C4         -1.6559   -1.4728    1.5077 CT        1 <0>        0.13445
      5 C5         -0.6603   -0.0313   -0.3381 CT        1 <0>        0.34438
      6 C6          1.6418    0.6827   -0.0167 CT        1 <0>        0.35280
      7 O1         -2.8338   -1.6932    2.2727 OH        1 <0>       -0.60143
      8 O2         -1.0020    1.0091   -1.2478 OH        1 <0>       -0.62079
      9 O3          1.5859    1.7918   -0.9126 OH        1 <0>       -0.61766
     10 O4          0.3718    0.3639    0.5664 OS        1 <0>       -0.45424
     11 H1          1.5780   -0.7952   -1.6156 HC        1 <0>        0.05379
     12 H2          2.2834   -1.3996   -0.1330 HC        1 <0>        0.05379
     13 H3          3.2275   -0.3006   -1.1468 HC        1 <0>        0.05379
     14 H4          2.1746    1.8955    1.7050 HC        1 <0>        0.05379
     15 H5          2.6573    0.2078    1.8558 HC        1 <0>        0.05379
     16 H6          3.5689    1.3162    0.7928 HC        1 <0>        0.05379
     17 H7         -2.7347   -0.6182   -0.1421 HC        1 <0>        0.07285
     18 H8         -2.2254    0.5562    1.0403 HC        1 <0>        0.07285
     19 H9         -0.8489   -1.2146    2.2002 H1        1 <0>        0.02658
     20 H10        -1.3919   -2.4090    1.0063 H1        1 <0>        0.02658
     21 H11        -0.3786   -0.9276   -0.8996 H2        1 <0>        0.06335
     22 H12        -2.6350   -2.4152    2.8904 HO        1 <0>        0.39981
     23 H13        -1.2694    1.7771   -0.7151 HO        1 <0>        0.43297
     24 H14         2.4879    1.9842   -1.2188 HO        1 <0>        0.41206
@<TRIPOS>BOND
     1    1    6 1
     2    2    6 1
     3    3    4 1
     4    3    5 1
     5    4    7 1
     6    5    8 1
     7    5   10 1
     8    6    9 1
     9    6   10 1
    10    1   11 1
    11    1   12 1
    12    1   13 1
    13    2   14 1
    14    2   15 1
    15    2   16 1
    16    3   17 1
    17    3   18 1
    18    4   19 1
    19    4   20 1
    20    5   21 1
    21    7   22 1
    22    8   23 1
    23    9   24 1
@<TRIPOS>SUBSTRUCTURE
     1 <0>         1 GROUP 0 A     ****
