@<TRIPOS>MOLECULE
AlkEthOH_c1177
   30    29     1     0     0
SMALL
USER_CHARGES

@<TRIPOS>ATOM
      1 C1         -0.5344   -1.5346    6.1699 CT        1 <0>       -0.09669
      2 C2         -2.7700    0.5302    2.0220 CT        1 <0>       -0.08717
      3 C3         -1.0734    0.0831    0.2464 CT        1 <0>       -0.08717
      4 C4         -0.4568    1.4451    2.2296 CT        1 <0>       -0.08717
      5 C5         -1.5818   -2.3500    2.0992 CT        1 <0>       -0.12016
      6 C6          0.6954   -1.3708    2.3753 CT        1 <0>       -0.12016
      7 C7         -0.2379   -1.7620    4.7029 CT        1 <0>        0.12893
      8 C8         -1.2802    0.2165    1.7742 CT        1 <0>       -0.03807
      9 C9         -0.8096   -1.0895    2.5249 CT        1 <0>        0.16790
     10 O1         -1.0583   -0.9070    3.9289 OS        1 <0>       -0.42317
     11 H1         -0.3260   -0.4995    6.4543 HC        1 <0>        0.04304
     12 H2         -1.5835   -1.7576    6.3907 HC        1 <0>        0.04304
     13 H3          0.0706   -2.2010    6.7936 HC        1 <0>        0.04304
     14 H4         -2.9738    0.6356    3.0944 HC        1 <0>        0.03673
     15 H5         -3.0736    1.4679    1.5463 HC        1 <0>        0.03673
     16 H6         -3.4213   -0.2670    1.6505 HC        1 <0>        0.03673
     17 H7         -0.0317   -0.1409   -0.0048 HC        1 <0>        0.03673
     18 H8         -1.6791   -0.7344   -0.1628 HC        1 <0>        0.03673
     19 H9         -1.3625    0.9978   -0.2820 HC        1 <0>        0.03673
     20 H10         0.6163    1.2786    2.0762 HC        1 <0>        0.03673
     21 H11        -0.7201    2.3436    1.6626 HC        1 <0>        0.03673
     22 H12        -0.6037    1.6584    3.2936 HC        1 <0>        0.03673
     23 H13        -2.6631   -2.1896    2.1918 HC        1 <0>        0.04257
     24 H14        -1.3232   -3.2203    2.7089 HC        1 <0>        0.04257
     25 H15        -1.4142   -2.5905    1.0447 HC        1 <0>        0.04257
     26 H16         1.3083   -0.5121    2.6625 HC        1 <0>        0.04257
     27 H17         1.0043   -2.2416    2.9616 HC        1 <0>        0.04257
     28 H18         0.9399   -1.6198    1.3353 HC        1 <0>        0.04257
     29 H19        -0.4485   -2.7990    4.4251 H1        1 <0>        0.02391
     30 H20         0.8104   -1.5380    4.4838 H1        1 <0>        0.02391
@<TRIPOS>BOND
     1    1    7 1
     2    2    8 1
     3    3    8 1
     4    4    8 1
     5    5    9 1
     6    6    9 1
     7    7   10 1
     8    8    9 1
     9    9   10 1
    10    1   11 1
    11    1   12 1
    12    1   13 1
    13    2   14 1
    14    2   15 1
    15    2   16 1
    16    3   17 1
    17    3   18 1
    18    3   19 1
    19    4   20 1
    20    4   21 1
    21    4   22 1
    22    5   23 1
    23    5   24 1
    24    5   25 1
    25    6   26 1
    26    6   27 1
    27    6   28 1
    28    7   29 1
    29    7   30 1
@<TRIPOS>SUBSTRUCTURE
     1 <0>         1 GROUP 0 A     ****
