@<TRIPOS>MOLECULE
AlkEthOH_c65
   26    25     1     0     0
SMALL
USER_CHARGES

@<TRIPOS>ATOM
      1 C1          0.6173   -0.5356   -0.7290 CT        1 <0>       -0.09795
      2 C2          3.5023   -2.5039    2.2139 CT        1 <0>       -0.12062
      3 C3          4.0687    1.2252   -0.0873 CT        1 <0>       -0.12574
      4 C4          2.3485    1.7731   -1.8184 CT        1 <0>       -0.12574
      5 C5          2.1047   -0.3548   -0.4361 CT        1 <0>        0.16795
      6 C6          3.2681   -2.0109    0.7940 CT        1 <0>        0.33352
      7 C7          2.5832    1.1163   -0.4553 CT        1 <0>        0.13555
      8 O1          2.7739   -3.0776   -0.0103 OH        1 <0>       -0.62916
      9 O2          1.8431    1.8724    0.5075 OH        1 <0>       -0.57789
     10 O3          2.3632   -0.9116    0.8555 OS        1 <0>       -0.39732
     11 H1         -0.0080    0.0269   -0.0308 HC        1 <0>        0.05002
     12 H2          0.3297   -1.5917   -0.6915 HC        1 <0>        0.05002
     13 H3          0.3853   -0.1888   -1.7424 HC        1 <0>        0.05002
     14 H4          2.5661   -2.8433    2.6685 HC        1 <0>        0.05357
     15 H5          4.1935   -3.3541    2.2201 HC        1 <0>        0.05357
     16 H6          3.9425   -1.7171    2.8343 HC        1 <0>        0.05357
     17 H7          4.2765    0.7649    0.8850 HC        1 <0>        0.04291
     18 H8          4.3698    2.2751    0.0067 HC        1 <0>        0.04291
     19 H9          4.7041    0.7496   -0.8414 HC        1 <0>        0.04291
     20 H10         1.2966    1.7155   -2.1169 HC        1 <0>        0.04291
     21 H11         2.5880    2.8424   -1.7805 HC        1 <0>        0.04291
     22 H12         2.9620    1.3112   -2.5986 HC        1 <0>        0.04291
     23 H13         2.6878   -0.9363   -1.1604 H1        1 <0>        0.04890
     24 H14         4.2229   -1.6797    0.3700 H2        1 <0>        0.01844
     25 H15         3.4352   -3.7897   -0.0115 HO        1 <0>        0.40844
     26 H16         2.1655    2.7831    0.4426 HO        1 <0>        0.39339
@<TRIPOS>BOND
     1    1    5 1
     2    2    6 1
     3    3    7 1
     4    4    7 1
     5    5    7 1
     6    5   10 1
     7    6    8 1
     8    6   10 1
     9    7    9 1
    10    1   11 1
    11    1   12 1
    12    1   13 1
    13    2   14 1
    14    2   15 1
    15    2   16 1
    16    3   17 1
    17    3   18 1
    18    3   19 1
    19    4   20 1
    20    4   21 1
    21    4   22 1
    22    5   23 1
    23    6   24 1
    24    8   25 1
    25    9   26 1
@<TRIPOS>SUBSTRUCTURE
     1 <0>         1 GROUP 0 A     ****
