@<TRIPOS>MOLECULE
AlkEthOH_c1126
   20    19     1     0     0
SMALL
USER_CHARGES

@<TRIPOS>ATOM
      1 C1         -0.7259   -0.7465   -0.3392 CT        1 <0>       -0.09201
      2 C2         -3.1254   -2.6785   -5.9027 CT        1 <0>       -0.09199
      3 C3         -0.8325   -0.7252   -1.8556 CT        1 <0>       -0.07956
      4 C4         -3.0189   -2.7003   -4.3862 CT        1 <0>       -0.07956
      5 C5         -1.8736   -1.7251   -2.3579 CT        1 <0>       -0.07841
      6 C6         -1.9540   -1.7248   -3.8854 CT        1 <0>       -0.07841
      7 H1         -1.6901   -0.5165    0.1253 HC        1 <0>        0.03249
      8 H2          0.0009   -0.0018    0.0003 HC        1 <0>        0.03249
      9 H3         -0.3980   -1.7283    0.0171 HC        1 <0>        0.03249
     10 H4         -3.3675   -1.6741   -6.2648 HC        1 <0>        0.03249
     11 H5         -2.1852   -2.9940   -6.3665 HC        1 <0>        0.03249
     12 H6         -3.9143   -3.3596   -6.2369 HC        1 <0>        0.03249
     13 H7          0.1473   -0.9587   -2.2881 HC        1 <0>        0.03771
     14 H8         -1.0991    0.2864   -2.1832 HC        1 <0>        0.03771
     15 H9         -2.7762   -3.7176   -4.0576 HC        1 <0>        0.03771
     16 H10        -3.9927   -2.4431   -3.9536 HC        1 <0>        0.03771
     17 H11        -2.8557   -1.4750   -1.9383 HC        1 <0>        0.03854
     18 H12        -1.6177   -2.7312   -2.0036 HC        1 <0>        0.03854
     19 H13        -0.9783   -1.9988   -4.3048 HC        1 <0>        0.03854
     20 H14        -2.1860   -0.7135   -4.2409 HC        1 <0>        0.03854
@<TRIPOS>BOND
     1    1    3 1
     2    2    4 1
     3    3    5 1
     4    4    6 1
     5    5    6 1
     6    1    7 1
     7    1    8 1
     8    1    9 1
     9    2   10 1
    10    2   11 1
    11    2   12 1
    12    3   13 1
    13    3   14 1
    14    4   15 1
    15    4   16 1
    16    5   17 1
    17    5   18 1
    18    6   19 1
    19    6   20 1
@<TRIPOS>SUBSTRUCTURE
     1 <0>         1 GROUP 0 A     ****
