@<TRIPOS>MOLECULE
AlkEthOH_c663
   33    32     1     0     0
SMALL
USER_CHARGES

@<TRIPOS>ATOM
      1 C1          1.2767   -0.1767    2.0666 CT        1 <0>       -0.08970
      2 C2         -2.3097   -2.7708    1.6269 CT        1 <0>       -0.13156
      3 C3          2.5605    2.6317    0.4049 CT        1 <0>       -0.08707
      4 C4          2.3286    0.7169   -1.1782 CT        1 <0>       -0.08707
      5 C5          1.1157    2.8501   -1.6318 CT        1 <0>       -0.08707
      6 C6         -0.9169   -0.7813    0.9501 CT        1 <0>       -0.06777
      7 C7          0.3601    1.3150    0.2555 CT        1 <0>       -0.06447
      8 C8          0.4832   -0.1498    0.7532 CT        1 <0>       -0.06646
      9 C9         -0.8952   -2.2385    1.4304 CT        1 <0>        0.13804
     10 C10         1.5805    1.8938   -0.5183 CT        1 <0>       -0.05138
     11 O1         -0.2339   -3.0421    0.4578 OH        1 <0>       -0.60088
     12 H1          0.7710    0.4006    2.8481 HC        1 <0>        0.03175
     13 H2          2.2762    0.2487    1.9233 HC        1 <0>        0.03175
     14 H3          1.4156   -1.1985    2.4316 HC        1 <0>        0.03175
     15 H4         -2.8928   -2.7011    0.7037 HC        1 <0>        0.04183
     16 H5         -2.2939   -3.8155    1.9564 HC        1 <0>        0.04183
     17 H6         -2.8269   -2.2035    2.4083 HC        1 <0>        0.04183
     18 H7          2.0856    3.4819    0.9047 HC        1 <0>        0.03369
     19 H8          2.9602    1.9612    1.1735 HC        1 <0>        0.03369
     20 H9          3.4120    3.0269   -0.1612 HC        1 <0>        0.03369
     21 H10         1.6697    0.1554   -1.8503 HC        1 <0>        0.03369
     22 H11         2.7111    0.0192   -0.4247 HC        1 <0>        0.03369
     23 H12         3.1826    1.0687   -1.7682 HC        1 <0>        0.03369
     24 H13         0.4132    2.3543   -2.3109 HC        1 <0>        0.03369
     25 H14         0.6212    3.7394   -1.2295 HC        1 <0>        0.03369
     26 H15         1.9652    3.1974   -2.2314 HC        1 <0>        0.03369
     27 H16        -1.4552   -0.7461   -0.0036 HC        1 <0>        0.04714
     28 H17        -1.4951   -0.1750    1.6594 HC        1 <0>        0.04714
     29 H18         0.1777    1.9756    1.1147 HC        1 <0>        0.03811
     30 H19        -0.5380    1.4056   -0.3709 HC        1 <0>        0.03811
     31 H20         1.0448   -0.7426    0.0250 HC        1 <0>        0.07314
     32 H21        -0.3479   -2.3261    2.3738 H1        1 <0>        0.03141
     33 H22        -0.2230   -3.9469    0.8072 HO        1 <0>        0.39639
@<TRIPOS>BOND
     1    1    8 1
     2    2    9 1
     3    3   10 1
     4    4   10 1
     5    5   10 1
     6    6    8 1
     7    6    9 1
     8    7    8 1
     9    7   10 1
    10    9   11 1
    11    1   12 1
    12    1   13 1
    13    1   14 1
    14    2   15 1
    15    2   16 1
    16    2   17 1
    17    3   18 1
    18    3   19 1
    19    3   20 1
    20    4   21 1
    21    4   22 1
    22    4   23 1
    23    5   24 1
    24    5   25 1
    25    5   26 1
    26    6   27 1
    27    6   28 1
    28    7   29 1
    29    7   30 1
    30    8   31 1
    31    9   32 1
    32   11   33 1
@<TRIPOS>SUBSTRUCTURE
     1 <0>         1 GROUP 0 A     ****
