@<TRIPOS>MOLECULE
AlkEthOH_c892
   20    19     1     0     0
SMALL
USER_CHARGES

@<TRIPOS>ATOM
      1 C1          1.1344   -0.9616    1.1025 CT        1 <0>       -0.12444
      2 C2         -0.7941    4.7654    2.8826 CT        1 <0>        0.11614
      3 C3          0.8064    3.1477    3.4694 CT        1 <0>        0.12304
      4 C4          1.7985    2.1551    2.8946 CT        1 <0>        0.13963
      5 C5          1.9706    0.2428    1.5079 CT        1 <0>        0.32905
      6 O1          2.6680    0.7483    0.3734 OH        1 <0>       -0.62532
      7 O2          0.1654    3.8346    2.4014 OS        1 <0>       -0.41316
      8 O3          1.1003    1.2158    2.0878 OS        1 <0>       -0.44868
      9 H1          0.3810   -0.6812    0.3596 HC        1 <0>        0.05537
     10 H2          1.7640   -1.7362    0.6504 HC        1 <0>        0.05537
     11 H3          0.6394   -1.4054    1.9718 HC        1 <0>        0.05537
     12 H4         -1.2656    5.2734    2.0378 H1        1 <0>        0.03172
     13 H5         -0.3023    5.4943    3.5317 H1        1 <0>        0.03172
     14 H6         -1.5556    4.2281    3.4528 H1        1 <0>        0.03172
     15 H7          1.3092    3.8888    4.0982 H1        1 <0>        0.03508
     16 H8          0.0397    2.6288    4.0521 H1        1 <0>        0.03508
     17 H9          2.3128    1.6058    3.6894 H1        1 <0>        0.04661
     18 H10         2.5327    2.6678    2.2663 H1        1 <0>        0.04661
     19 H11         2.7126   -0.0724    2.2503 H2        1 <0>        0.06727
     20 H12         3.2445    0.0444    0.0318 HO        1 <0>        0.41182
@<TRIPOS>BOND
     1    1    5 1
     2    2    7 1
     3    3    4 1
     4    3    7 1
     5    4    8 1
     6    5    6 1
     7    5    8 1
     8    1    9 1
     9    1   10 1
    10    1   11 1
    11    2   12 1
    12    2   13 1
    13    2   14 1
    14    3   15 1
    15    3   16 1
    16    4   17 1
    17    4   18 1
    18    5   19 1
    19    6   20 1
@<TRIPOS>SUBSTRUCTURE
     1 <0>         1 GROUP 0 A     ****
