@<TRIPOS>MOLECULE
AlkEthOH_c1186
   30    29     1     0     0
SMALL
USER_CHARGES

@<TRIPOS>ATOM
      1 C1         -1.0259    2.9709    1.9095 CT        1 <0>       -0.09526
      2 C2          1.4775   -2.0194   -1.4816 CT        1 <0>       -0.09174
      3 C3         -0.8910   -2.7445   -1.1620 CT        1 <0>       -0.09174
      4 C4          0.5788    1.2465   -2.2329 CT        1 <0>       -0.10204
      5 C5          1.9217    0.8707   -0.1563 CT        1 <0>       -0.10204
      6 C6         -0.2724   -0.3947   -0.5266 CT        1 <0>       -0.09837
      7 C7         -0.2938    1.7972    1.2947 CT        1 <0>        0.12744
      8 C8          0.0204   -1.5586   -1.5011 CT        1 <0>       -0.06131
      9 C9          0.5076    0.9241   -0.7347 CT        1 <0>        0.15790
     10 O1         -0.1778    2.0061   -0.1039 OS        1 <0>       -0.42914
     11 H1         -0.4803    3.9033    1.7401 HC        1 <0>        0.04302
     12 H2         -2.0298    3.0661    1.4828 HC        1 <0>        0.04302
     13 H3         -1.1509    2.8257    2.9877 HC        1 <0>        0.04302
     14 H4          1.7794   -2.3458   -0.4826 HC        1 <0>        0.03379
     15 H5          2.1485   -1.2002   -1.7625 HC        1 <0>        0.03379
     16 H6          1.6435   -2.8450   -2.1816 HC        1 <0>        0.03379
     17 H7         -0.6936   -3.1107   -0.1488 HC        1 <0>        0.03379
     18 H8         -1.9454   -2.4518   -1.2086 HC        1 <0>        0.03379
     19 H9         -0.7388   -3.5753   -1.8595 HC        1 <0>        0.03379
     20 H10        -0.4180    1.2934   -2.6838 HC        1 <0>        0.04385
     21 H11         1.0815    2.2057   -2.4029 HC        1 <0>        0.04385
     22 H12         1.1668    0.4916   -2.7676 HC        1 <0>        0.04385
     23 H13         1.9093    0.6421    0.9145 HC        1 <0>        0.04385
     24 H14         2.4147    1.8458   -0.2463 HC        1 <0>        0.04385
     25 H15         2.5383    0.1254   -0.6687 HC        1 <0>        0.04385
     26 H16        -1.3464   -0.1708   -0.5872 HC        1 <0>        0.04753
     27 H17        -0.0870   -0.7533    0.4955 HC        1 <0>        0.04753
     28 H18        -0.8447    0.8679    1.4677 H1        1 <0>        0.02280
     29 H19         0.7093    1.7040    1.7216 H1        1 <0>        0.02280
     30 H20        -0.2283   -1.2440   -2.5215 HC        1 <0>        0.05074
@<TRIPOS>BOND
     1    1    7 1
     2    2    8 1
     3    3    8 1
     4    4    9 1
     5    5    9 1
     6    6    8 1
     7    6    9 1
     8    7   10 1
     9    9   10 1
    10    1   11 1
    11    1   12 1
    12    1   13 1
    13    2   14 1
    14    2   15 1
    15    2   16 1
    16    3   17 1
    17    3   18 1
    18    3   19 1
    19    4   20 1
    20    4   21 1
    21    4   22 1
    22    5   23 1
    23    5   24 1
    24    5   25 1
    25    6   26 1
    26    6   27 1
    27    7   28 1
    28    7   29 1
    29    8   30 1
@<TRIPOS>SUBSTRUCTURE
     1 <0>         1 GROUP 0 A     ****
