@<TRIPOS>MOLECULE
AlkEthOH_c744
   16    15     1     0     0
SMALL
USER_CHARGES

@<TRIPOS>ATOM
      1 C1          0.3872    0.7577   -0.5495 CT        1 <0>       -0.12992
      2 C2          1.4087   -0.7635   -2.2846 CT        1 <0>       -0.07786
      3 C3          1.5600   -1.0781   -3.7687 CT        1 <0>        0.13411
      4 C4          0.5699    0.4916   -2.0374 CT        1 <0>        0.14005
      5 O1          2.3347   -2.2614   -3.9093 OH        1 <0>       -0.60735
      6 O2         -0.7144    0.3479   -2.6377 OH        1 <0>       -0.60488
      7 H1         -0.0935   -0.0891   -0.0503 HC        1 <0>        0.04442
      8 H2         -0.2196    1.6542   -0.3814 HC        1 <0>        0.04442
      9 H3          1.3564    0.9402   -0.0731 HC        1 <0>        0.04442
     10 H4          2.4032   -0.6500   -1.8355 HC        1 <0>        0.06140
     11 H5          0.9485   -1.6308   -1.7934 HC        1 <0>        0.06140
     12 H6          0.5865   -1.2453   -4.2398 H1        1 <0>        0.03053
     13 H7          2.0731   -0.2632   -4.2891 H1        1 <0>        0.03053
     14 H8          1.0526    1.3593   -2.5002 H1        1 <0>        0.03002
     15 H9          2.4124   -2.4338   -4.8616 HO        1 <0>        0.39954
     16 H10        -1.1857    1.1817   -2.4851 HO        1 <0>        0.39917
@<TRIPOS>BOND
     1    1    4 1
     2    2    3 1
     3    2    4 1
     4    3    5 1
     5    4    6 1
     6    1    7 1
     7    1    8 1
     8    1    9 1
     9    2   10 1
    10    2   11 1
    11    3   12 1
    12    3   13 1
    13    4   14 1
    14    5   15 1
    15    6   16 1
@<TRIPOS>SUBSTRUCTURE
     1 <0>         1 GROUP 0 A     ****
