@<TRIPOS>MOLECULE
AlkEthOH_c674
   26    25     1     0     0
SMALL
USER_CHARGES

@<TRIPOS>ATOM
      1 C1         -0.8825    0.3039    0.4723 CT        1 <0>       -0.12856
      2 C2         -1.8946    3.7055   -3.1110 CT        1 <0>       -0.10202
      3 C3         -5.9337    2.8971   -1.0798 CT        1 <0>       -0.12124
      4 C4         -1.4311    2.0113   -1.3010 CT        1 <0>       -0.08895
      5 C5         -1.9563    0.8336   -0.4695 CT        1 <0>        0.13683
      6 C6         -2.4683    2.5565   -2.2917 CT        1 <0>        0.15220
      7 C7         -4.7991    2.3444   -1.9290 CT        1 <0>        0.33475
      8 O1         -2.3551   -0.2157   -1.3470 OH        1 <0>       -0.60786
      9 O2         -5.1143    2.4945   -3.3099 OH        1 <0>       -0.62559
     10 O3         -3.6005    3.0297   -1.5678 OS        1 <0>       -0.41951
     11 H1          0.0092   -0.0116   -0.0779 HC        1 <0>        0.04285
     12 H2         -1.2559   -0.5454    1.0550 HC        1 <0>        0.04285
     13 H3         -0.5909    1.0753    1.1933 HC        1 <0>        0.04285
     14 H4         -1.5520    4.5113   -2.4530 HC        1 <0>        0.04405
     15 H5         -1.0222    3.3788   -3.6878 HC        1 <0>        0.04405
     16 H6         -2.6398    4.1135   -3.8005 HC        1 <0>        0.04405
     17 H7         -6.0734    3.9671   -1.2639 HC        1 <0>        0.05110
     18 H8         -6.8789    2.3993   -1.3239 HC        1 <0>        0.05110
     19 H9         -5.7413    2.7344   -0.0148 HC        1 <0>        0.05110
     20 H10        -1.1259    2.8133   -0.6171 HC        1 <0>        0.05544
     21 H11        -0.5445    1.6922   -1.8635 HC        1 <0>        0.05544
     22 H12        -2.8323    1.1397    0.1129 H1        1 <0>        0.03833
     23 H13        -2.8051    1.7614   -2.9658 H1        1 <0>        0.07005
     24 H14        -4.6868    1.2743   -1.7204 H2        1 <0>        0.03329
     25 H15        -2.6999   -0.9285   -0.7871 HO        1 <0>        0.39701
     26 H16        -5.9332    2.0033   -3.4905 HO        1 <0>        0.40639
@<TRIPOS>BOND
     1    1    5 1
     2    2    6 1
     3    3    7 1
     4    4    5 1
     5    4    6 1
     6    5    8 1
     7    6   10 1
     8    7    9 1
     9    7   10 1
    10    1   11 1
    11    1   12 1
    12    1   13 1
    13    2   14 1
    14    2   15 1
    15    2   16 1
    16    3   17 1
    17    3   18 1
    18    3   19 1
    19    4   20 1
    20    4   21 1
    21    5   22 1
    22    6   23 1
    23    7   24 1
    24    8   25 1
    25    9   26 1
@<TRIPOS>SUBSTRUCTURE
     1 <0>         1 GROUP 0 A     ****
