@<TRIPOS>MOLECULE
AlkEthOH_c80
   23    22     1     0     0
SMALL
USER_CHARGES

@<TRIPOS>ATOM
      1 C1         -0.8219   -0.7579    1.8572 CT        1 <0>       -0.12345
      2 C2          1.7406   -0.2094    0.1990 CT        1 <0>       -0.12005
      3 C3         -1.0121    1.7007   -3.3005 CT        1 <0>        0.11496
      4 C4          0.3076    0.7495   -1.6045 CT        1 <0>        0.09646
      5 C5         -0.8073   -0.4632    0.3584 CT        1 <0>        0.15115
      6 C6          0.3765    0.4233   -0.1009 CT        1 <0>        0.16317
      7 O1         -0.7841   -1.6999   -0.3508 OH        1 <0>       -0.61063
      8 O2          0.3265    1.6616    0.6168 OH        1 <0>       -0.59038
      9 O3         -0.9439    1.3462   -1.9267 OS        1 <0>       -0.41568
     10 H1          0.0950   -1.2641    2.1759 HC        1 <0>        0.04647
     11 H2         -1.6439   -1.4423    2.0963 HC        1 <0>        0.04647
     12 H3         -0.9541    0.1521    2.4492 HC        1 <0>        0.04647
     13 H4          1.8265   -0.4560    1.2640 HC        1 <0>        0.04808
     14 H5          2.5672    0.4580   -0.0646 HC        1 <0>        0.04808
     15 H6          1.8688   -1.1570   -0.3351 HC        1 <0>        0.04808
     16 H7         -1.9832    2.1547   -3.5126 H1        1 <0>        0.03383
     17 H8         -0.8732    0.8079   -3.9154 H1        1 <0>        0.03383
     18 H9         -0.2201    2.4200   -3.5218 H1        1 <0>        0.03383
     19 H10         0.4238   -0.1528   -2.2141 H1        1 <0>        0.03988
     20 H11         1.0895    1.4661   -1.8795 H1        1 <0>        0.03988
     21 H12        -1.7515    0.0404    0.1179 H1        1 <0>        0.06099
     22 H13        -1.5867   -2.1797   -0.0945 HO        1 <0>        0.40345
     23 H14         1.0604    2.1965    0.2823 HO        1 <0>        0.40511
@<TRIPOS>BOND
     1    1    5 1
     2    2    6 1
     3    3    9 1
     4    4    6 1
     5    4    9 1
     6    5    6 1
     7    5    7 1
     8    6    8 1
     9    1   10 1
    10    1   11 1
    11    1   12 1
    12    2   13 1
    13    2   14 1
    14    2   15 1
    15    3   16 1
    16    3   17 1
    17    3   18 1
    18    4   19 1
    19    4   20 1
    20    5   21 1
    21    7   22 1
    22    8   23 1
@<TRIPOS>SUBSTRUCTURE
     1 <0>         1 GROUP 0 A     ****
