@<TRIPOS>MOLECULE
AlkEthOH_c511
   28    27     1     0     0
SMALL
USER_CHARGES

@<TRIPOS>ATOM
      1 C1          0.8596   -4.3408    1.5076 CT        1 <0>       -0.10541
      2 C2         -0.2197   -3.2653   -0.4999 CT        1 <0>       -0.10541
      3 C3          0.9511   -0.3029    0.4536 CT        1 <0>       -0.10319
      4 C4         -0.0965   -0.0035    2.7071 CT        1 <0>       -0.10319
      5 C5          2.0341   -1.3283    2.5217 CT        1 <0>       -0.11066
      6 C6          2.9630   -0.1502    2.8081 CT        1 <0>        0.13440
      7 C7          0.6121   -3.0428    0.7540 CT        1 <0>        0.13618
      8 C8          0.7167   -0.9506    1.8190 CT        1 <0>        0.15854
      9 O1          4.1514   -0.6212    3.4335 OH        1 <0>       -0.60214
     10 O2         -0.0614   -2.1299    1.6054 OS        1 <0>       -0.42564
     11 H1         -0.0818   -4.8187    1.7953 HC        1 <0>        0.04190
     12 H2          1.4312   -5.0388    0.8866 HC        1 <0>        0.04190
     13 H3          1.4539   -4.1652    2.4111 HC        1 <0>        0.04190
     14 H4         -1.1868   -3.7176   -0.2601 HC        1 <0>        0.04190
     15 H5          0.3107   -3.9223   -1.1975 HC        1 <0>        0.04190
     16 H6         -0.3956   -2.3219   -1.0286 HC        1 <0>        0.04190
     17 H7          1.5313   -0.9566   -0.2063 HC        1 <0>        0.04393
     18 H8         -0.0011   -0.1288   -0.0613 HC        1 <0>        0.04393
     19 H9          1.4719    0.6556    0.5466 HC        1 <0>        0.04393
     20 H10        -0.2827   -0.4378    3.6949 HC        1 <0>        0.04393
     21 H11         0.4244    0.9518    2.8392 HC        1 <0>        0.04393
     22 H12        -1.0619    0.2337    2.2454 HC        1 <0>        0.04393
     23 H13         2.5896   -2.0416    1.8976 HC        1 <0>        0.06345
     24 H14         1.8245   -1.8574    3.4603 HC        1 <0>        0.06345
     25 H15         3.2529    0.3595    1.8848 H1        1 <0>        0.02284
     26 H16         2.4988    0.5808    3.4761 H1        1 <0>        0.02284
     27 H17         1.5710   -2.5903    0.4810 H1        1 <0>        0.03967
     28 H18         4.7078    0.1571    3.5956 HO        1 <0>        0.39929
@<TRIPOS>BOND
     1    1    7 1
     2    2    7 1
     3    3    8 1
     4    4    8 1
     5    5    6 1
     6    5    8 1
     7    6    9 1
     8    7   10 1
     9    8   10 1
    10    1   11 1
    11    1   12 1
    12    1   13 1
    13    2   14 1
    14    2   15 1
    15    2   16 1
    16    3   17 1
    17    3   18 1
    18    3   19 1
    19    4   20 1
    20    4   21 1
    21    4   22 1
    22    5   23 1
    23    5   24 1
    24    6   25 1
    25    6   26 1
    26    7   27 1
    27    9   28 1
@<TRIPOS>SUBSTRUCTURE
     1 <0>         1 GROUP 0 A     ****
