@<TRIPOS>MOLECULE
AlkEthOH_c626
   29    28     1     0     0
SMALL
USER_CHARGES

@<TRIPOS>ATOM
      1 C1          0.8424   -0.4231    0.5585 CT        1 <0>       -0.12750
      2 C2         -0.9939   -3.9671    0.7422 CT        1 <0>       -0.12432
      3 C3          3.2986   -1.4040   -3.7234 CT        1 <0>       -0.12076
      4 C4          3.9506   -2.7508   -1.7179 CT        1 <0>       -0.12076
      5 C5          2.0673   -1.0299   -1.5592 CT        1 <0>       -0.07696
      6 C6          1.5075   -1.5489   -0.2243 CT        1 <0>        0.14664
      7 C7          0.4437   -3.4801    0.6406 CT        1 <0>        0.32387
      8 C8          2.7866   -2.0750   -2.4437 CT        1 <0>        0.15977
      9 O1          1.3174   -4.5920    0.4692 OH        1 <0>       -0.62744
     10 O2          1.8706   -3.1004   -2.8303 OH        1 <0>       -0.59368
     11 O3          0.5241   -2.5543   -0.4432 OS        1 <0>       -0.43779
     12 H1          0.0364    0.0411   -0.0180 HC        1 <0>        0.04139
     13 H2          0.4314   -0.7916    1.5050 HC        1 <0>        0.04139
     14 H3          1.5765    0.3486    0.8146 HC        1 <0>        0.04139
     15 H4         -1.2987   -4.4778   -0.1767 HC        1 <0>        0.05393
     16 H5         -1.1033   -4.6837    1.5640 HC        1 <0>        0.05393
     17 H6         -1.6767   -3.1346    0.9382 HC        1 <0>        0.05393
     18 H7          2.4899   -0.9086   -4.2705 HC        1 <0>        0.04386
     19 H8          3.7681   -2.1377   -4.3887 HC        1 <0>        0.04386
     20 H9          4.0698   -0.6600   -3.4930 HC        1 <0>        0.04386
     21 H10         3.6041   -3.2372   -0.7984 HC        1 <0>        0.04386
     22 H11         4.4325   -3.5070   -2.3458 HC        1 <0>        0.04386
     23 H12         4.7042   -2.0217   -1.4018 HC        1 <0>        0.04386
     24 H13         1.2257   -0.6228   -2.1368 HC        1 <0>        0.06060
     25 H14         2.7555   -0.1993   -1.3559 HC        1 <0>        0.06060
     26 H15         2.3023   -1.9768    0.3949 H1        1 <0>        0.04938
     27 H16         0.7155   -2.9751    1.5746 H2        1 <0>        0.07288
     28 H17         1.2195   -5.1776    1.2385 HO        1 <0>        0.40846
     29 H18         2.3700   -3.7175   -3.3858 HO        1 <0>        0.39789
@<TRIPOS>BOND
     1    1    6 1
     2    2    7 1
     3    3    8 1
     4    4    8 1
     5    5    6 1
     6    5    8 1
     7    6   11 1
     8    7    9 1
     9    7   11 1
    10    8   10 1
    11    1   12 1
    12    1   13 1
    13    1   14 1
    14    2   15 1
    15    2   16 1
    16    2   17 1
    17    3   18 1
    18    3   19 1
    19    3   20 1
    20    4   21 1
    21    4   22 1
    22    4   23 1
    23    5   24 1
    24    5   25 1
    25    6   26 1
    26    7   27 1
    27    9   28 1
    28   10   29 1
@<TRIPOS>SUBSTRUCTURE
     1 <0>         1 GROUP 0 A     ****
