@<TRIPOS>MOLECULE
AlkEthOH_c273
   30    29     1     0     0
SMALL
USER_CHARGES

@<TRIPOS>ATOM
      1 C1          0.8129    1.4537    1.6509 CT        1 <0>       -0.08873
      2 C2         -0.1957    2.7067   -0.2343 CT        1 <0>       -0.08873
      3 C3         -0.6743    0.1258   -1.7713 CT        1 <0>       -0.09203
      4 C4         -1.8081    0.1372    0.4463 CT        1 <0>       -0.09203
      5 C5          1.6691   -1.4721   -0.5614 CT        1 <0>       -0.12442
      6 C6         -0.5313   -2.5526   -0.1453 CT        1 <0>       -0.12442
      7 C7          0.4402    1.3597    0.1629 CT        1 <0>       -0.05049
      8 C8         -0.4176    0.0775   -0.2404 CT        1 <0>       -0.01966
      9 C9          0.3110   -1.2923    0.1405 CT        1 <0>        0.16070
     10 O1          0.5534   -1.3087    1.5554 OH        1 <0>       -0.59901
     11 H1         -0.0720    1.5055    2.2915 HC        1 <0>        0.03473
     12 H2          1.4069    2.3549    1.8433 HC        1 <0>        0.03473
     13 H3          1.4321    0.6135    1.9727 HC        1 <0>        0.03473
     14 H4         -1.1531    2.8420    0.2829 HC        1 <0>        0.03473
     15 H5          0.4275    3.5574    0.0517 HC        1 <0>        0.03473
     16 H6         -0.3994    2.7642   -1.3074 HC        1 <0>        0.03473
     17 H7          0.2588    0.0883   -2.3423 HC        1 <0>        0.03766
     18 H8         -1.2995   -0.7095   -2.1013 HC        1 <0>        0.03766
     19 H9         -1.1603    1.0567   -2.0779 HC        1 <0>        0.03766
     20 H10        -1.7318    0.1086    1.5371 HC        1 <0>        0.03766
     21 H11        -2.4454   -0.6983    0.1400 HC        1 <0>        0.03766
     22 H12        -2.3560    1.0455    0.1763 HC        1 <0>        0.03766
     23 H13         2.3296   -0.6144   -0.4059 HC        1 <0>        0.04188
     24 H14         1.5319   -1.5957   -1.6428 HC        1 <0>        0.04188
     25 H15         2.1831   -2.3801   -0.2326 HC        1 <0>        0.04188
     26 H16        -1.5178   -2.4994    0.3238 HC        1 <0>        0.04188
     27 H17        -0.6543   -2.7402   -1.2156 HC        1 <0>        0.04188
     28 H18        -0.0529   -3.4411    0.2863 HC        1 <0>        0.04188
     29 H19         1.3832    1.3125   -0.3973 HC        1 <0>        0.03850
     30 H20         0.9511   -2.1688    1.7470 HO        1 <0>        0.39470
@<TRIPOS>BOND
     1    1    7 1
     2    2    7 1
     3    3    8 1
     4    4    8 1
     5    5    9 1
     6    6    9 1
     7    7    8 1
     8    8    9 1
     9    9   10 1
    10    1   11 1
    11    1   12 1
    12    1   13 1
    13    2   14 1
    14    2   15 1
    15    2   16 1
    16    3   17 1
    17    3   18 1
    18    3   19 1
    19    4   20 1
    20    4   21 1
    21    4   22 1
    22    5   23 1
    23    5   24 1
    24    5   25 1
    25    6   26 1
    26    6   27 1
    27    6   28 1
    28    7   29 1
    29   10   30 1
@<TRIPOS>SUBSTRUCTURE
     1 <0>         1 GROUP 0 A     ****
