@<TRIPOS>MOLECULE
AlkEthOH_c1282
   13    12     1     0     0
SMALL
USER_CHARGES

@<TRIPOS>ATOM
      1 C1         -1.7150   -0.9723    1.6387 CT        1 <0>       -0.09694
      2 C2         -0.8027    0.0751    1.0367 CT        1 <0>        0.12983
      3 C3         -0.1014    1.0074   -1.0178 CT        1 <0>        0.32835
      4 O1          1.2839    0.7557   -0.8309 OH        1 <0>       -0.62905
      5 O2         -0.9335    0.0449   -0.3781 OS        1 <0>       -0.41302
      6 H1         -2.7592   -0.7751    1.3805 HC        1 <0>        0.04455
      7 H2         -1.4448   -1.9712    1.2809 HC        1 <0>        0.04455
      8 H3         -1.6176   -0.9878    2.7293 HC        1 <0>        0.04455
      9 H4          0.2400   -0.1279    1.2987 H1        1 <0>        0.03351
     10 H5         -1.0745    1.0726    1.3946 H1        1 <0>        0.03351
     11 H6         -0.3484    2.0249   -0.6933 H2        1 <0>        0.03502
     12 H7         -0.3002    0.9438   -2.0915 H2        1 <0>        0.03502
     13 H8          1.7694    1.4564   -1.2981 HO        1 <0>        0.41012
@<TRIPOS>BOND
     1    1    2 1
     2    2    5 1
     3    3    4 1
     4    3    5 1
     5    1    6 1
     6    1    7 1
     7    1    8 1
     8    2    9 1
     9    2   10 1
    10    3   11 1
    11    3   12 1
    12    4   13 1
@<TRIPOS>SUBSTRUCTURE
     1 <0>         1 GROUP 0 A     ****
