@<TRIPOS>MOLECULE
AlkEthOH_c522
   26    25     1     0     0
SMALL
USER_CHARGES

@<TRIPOS>ATOM
      1 C1         -2.2518   -1.5813   -1.3003 CT        1 <0>       -0.10582
      2 C2         -3.1634    0.7212   -0.8321 CT        1 <0>       -0.10582
      3 C3          0.7014    0.3726    1.6219 CT        1 <0>       -0.10972
      4 C4          0.0999    1.9098   -0.2296 CT        1 <0>       -0.10972
      5 C5          1.2175   -1.6250   -0.5133 CT        1 <0>        0.32950
      6 C6         -1.9147   -0.1385   -0.9561 CT        1 <0>        0.14411
      7 C7          0.1286    0.4352    0.1992 CT        1 <0>        0.34706
      8 O1          1.7185   -2.3197   -1.6443 OH        1 <0>       -0.58532
      9 O2          0.9801   -0.2395   -0.7409 OS        1 <0>       -0.44635
     10 O3         -1.2000   -0.1054    0.2717 OS        1 <0>       -0.45531
     11 H1         -2.9071   -2.0269   -0.5457 HC        1 <0>        0.04058
     12 H2         -2.7519   -1.6340   -2.2733 HC        1 <0>        0.04058
     13 H3         -1.3444   -2.1902   -1.3801 HC        1 <0>        0.04058
     14 H4         -3.8404    0.3305   -0.0664 HC        1 <0>        0.04058
     15 H5         -3.6982    0.7564   -1.7873 HC        1 <0>        0.04058
     16 H6         -2.9062    1.7553   -0.5776 HC        1 <0>        0.04058
     17 H7          0.7460   -0.6614    1.9827 HC        1 <0>        0.05395
     18 H8          0.1070    0.9704    2.3208 HC        1 <0>        0.05395
     19 H9          1.7308    0.7465    1.6521 HC        1 <0>        0.05395
     20 H10        -0.3018    2.0197   -1.2432 HC        1 <0>        0.05395
     21 H11         1.1110    2.3316   -0.2555 HC        1 <0>        0.05395
     22 H12        -0.5224    2.5109    0.4417 HC        1 <0>        0.05395
     23 H13         1.9876   -1.6858    0.2615 H2        1 <0>        0.03130
     24 H14         0.3329   -2.1318   -0.1154 H2        1 <0>        0.03130
     25 H15        -1.2595    0.2778   -1.7282 H1        1 <0>        0.06296
     26 H16         1.8426   -3.2467   -1.3788 HO        1 <0>        0.40465
@<TRIPOS>BOND
     1    1    6 1
     2    2    6 1
     3    3    7 1
     4    4    7 1
     5    5    8 1
     6    5    9 1
     7    6   10 1
     8    7    9 1
     9    7   10 1
    10    1   11 1
    11    1   12 1
    12    1   13 1
    13    2   14 1
    14    2   15 1
    15    2   16 1
    16    3   17 1
    17    3   18 1
    18    3   19 1
    19    4   20 1
    20    4   21 1
    21    4   22 1
    22    5   23 1
    23    5   24 1
    24    6   25 1
    25    8   26 1
@<TRIPOS>SUBSTRUCTURE
     1 <0>         1 GROUP 0 A     ****
