@<TRIPOS>MOLECULE
AlkEthOH_c1298
   10     9     1     0     0
SMALL
USER_CHARGES

@<TRIPOS>ATOM
      1 C1         -0.7892   -0.1079    1.0274 CT        1 <0>        0.11956
      2 C2          0.3217    0.1705   -1.0391 CT        1 <0>        0.32529
      3 O1          1.1227   -0.9979   -0.9366 OH        1 <0>       -0.62749
      4 O2         -0.9335    0.0449   -0.3781 OS        1 <0>       -0.41366
      5 H1         -1.7760   -0.2000    1.4879 H1        1 <0>        0.03802
      6 H2         -0.2637    0.7585    1.4370 H1        1 <0>        0.03802
      7 H3         -0.2098   -1.0119    1.2291 H1        1 <0>        0.03802
      8 H4          0.8768    1.0431   -0.6757 H2        1 <0>        0.03550
      9 H5          0.1133    0.3283   -2.1012 H2        1 <0>        0.03550
     10 H6          1.9517   -0.8212   -1.4125 HO        1 <0>        0.41124
@<TRIPOS>BOND
     1    1    4 1
     2    2    3 1
     3    2    4 1
     4    1    5 1
     5    1    6 1
     6    1    7 1
     7    2    8 1
     8    2    9 1
     9    3   10 1
@<TRIPOS>SUBSTRUCTURE
     1 <0>         1 GROUP 0 A     ****
