@<TRIPOS>MOLECULE
AlkEthOH_c906
   19    18     1     0     0
SMALL
USER_CHARGES

@<TRIPOS>ATOM
      1 C1         -0.4153    0.8738   -0.1412 CT        1 <0>       -0.09848
      2 C2         -3.8694    0.4333    3.5587 CT        1 <0>       -0.12811
      3 C3         -1.1134    1.5629    1.0244 CT        1 <0>       -0.11749
      4 C4         -2.8501    1.3410    2.8796 CT        1 <0>        0.14759
      5 C5         -2.1610    0.6587    1.6874 CT        1 <0>        0.14996
      6 O1         -1.8691    1.7247    3.8411 OH        1 <0>       -0.59202
      7 O2         -1.5349   -0.5506    2.1150 OH        1 <0>       -0.59202
      8 H1         -1.1500    0.5675   -0.8926 HC        1 <0>        0.03448
      9 H2          0.3029    1.5420   -0.6265 HC        1 <0>        0.03448
     10 H3          0.1186   -0.0207    0.1954 HC        1 <0>        0.03448
     11 H4         -3.4032   -0.4894    3.9170 HC        1 <0>        0.04792
     12 H5         -4.3539    0.9369    4.4020 HC        1 <0>        0.04792
     13 H6         -4.6676    0.1676    2.8570 HC        1 <0>        0.04792
     14 H7         -0.3465    1.8532    1.7521 HC        1 <0>        0.06197
     15 H8         -1.5911    2.4799    0.6609 HC        1 <0>        0.06197
     16 H9         -3.3496    2.2534    2.5338 H1        1 <0>        0.02948
     17 H10        -2.9217    0.3819    0.9481 H1        1 <0>        0.02938
     18 H11        -2.3428    2.1922    4.5460 HO        1 <0>        0.39974
     19 H12        -1.1691   -0.9661    1.3194 HO        1 <0>        0.40083
@<TRIPOS>BOND
     1    1    3 1
     2    2    4 1
     3    3    5 1
     4    4    5 1
     5    4    6 1
     6    5    7 1
     7    1    8 1
     8    1    9 1
     9    1   10 1
    10    2   11 1
    11    2   12 1
    12    2   13 1
    13    3   14 1
    14    3   15 1
    15    4   16 1
    16    5   17 1
    17    6   18 1
    18    7   19 1
@<TRIPOS>SUBSTRUCTURE
     1 <0>         1 GROUP 0 A     ****
