@<TRIPOS>MOLECULE
AlkEthOH_c1023
   30    29     1     0     0
SMALL
USER_CHARGES

@<TRIPOS>ATOM
      1 C1          1.6681   -2.6813   -1.5554 CT        1 <0>       -0.09212
      2 C2          0.9453    0.2952    1.6846 CT        1 <0>       -0.08721
      3 C3         -1.2706   -0.7381    1.2402 CT        1 <0>       -0.08721
      4 C4         -1.7902    1.4387   -0.9467 CT        1 <0>       -0.12402
      5 C5          0.3950    2.4778   -0.3670 CT        1 <0>       -0.12402
      6 C6          1.0511   -2.0593   -0.3095 CT        1 <0>       -0.08092
      7 C7          0.4619   -0.6744   -0.6158 CT        1 <0>       -0.07329
      8 C8         -0.1418    0.1062    0.5966 CT        1 <0>       -0.02889
      9 C9         -0.7006    1.5226    0.1369 CT        1 <0>        0.15702
     10 O1         -1.2870    2.1918    1.2666 OH        1 <0>       -0.60153
     11 H1          2.4537   -2.0393   -1.9669 HC        1 <0>        0.03225
     12 H2          2.1146   -3.6509   -1.3129 HC        1 <0>        0.03225
     13 H3          0.9116   -2.8402   -2.3304 HC        1 <0>        0.03225
     14 H4          1.7901    0.8864    1.3145 HC        1 <0>        0.03908
     15 H5          0.5499    0.8149    2.5632 HC        1 <0>        0.03908
     16 H6          1.3576   -0.6641    2.0151 HC        1 <0>        0.03908
     17 H7         -2.0907   -0.9246    0.5396 HC        1 <0>        0.03908
     18 H8         -0.8989   -1.7044    1.5952 HC        1 <0>        0.03908
     19 H9         -1.7156   -0.2286    2.1018 HC        1 <0>        0.03908
     20 H10        -2.5954    0.7651   -0.6284 HC        1 <0>        0.04222
     21 H11        -2.2375    2.4126   -1.1633 HC        1 <0>        0.04222
     22 H12        -1.4053    1.0124   -1.8782 HC        1 <0>        0.04222
     23 H13         1.2120    2.5928    0.3503 HC        1 <0>        0.04222
     24 H14         0.8275    2.1038   -1.3035 HC        1 <0>        0.04222
     25 H15        -0.0079    3.4662   -0.6082 HC        1 <0>        0.04222
     26 H16         0.2749   -2.7347    0.0635 HC        1 <0>        0.04137
     27 H17         1.8263   -1.9865    0.4596 HC        1 <0>        0.04137
     28 H18        -0.3103   -0.8059   -1.3829 HC        1 <0>        0.03940
     29 H19         1.2565   -0.0740   -1.0739 HC        1 <0>        0.03940
     30 H20        -1.5561    3.0627    0.9463 HO        1 <0>        0.39610
@<TRIPOS>BOND
     1    1    6 1
     2    2    8 1
     3    3    8 1
     4    4    9 1
     5    5    9 1
     6    6    7 1
     7    7    8 1
     8    8    9 1
     9    9   10 1
    10    1   11 1
    11    1   12 1
    12    1   13 1
    13    2   14 1
    14    2   15 1
    15    2   16 1
    16    3   17 1
    17    3   18 1
    18    3   19 1
    19    4   20 1
    20    4   21 1
    21    4   22 1
    22    5   23 1
    23    5   24 1
    24    5   25 1
    25    6   26 1
    26    6   27 1
    27    7   28 1
    28    7   29 1
    29   10   30 1
@<TRIPOS>SUBSTRUCTURE
     1 <0>         1 GROUP 0 A     ****
