@<TRIPOS>MOLECULE
AlkEthOH_c330
   28    27     1     0     0
SMALL
USER_CHARGES

@<TRIPOS>ATOM
      1 C1          0.2807    0.8790   -0.7444 CT        1 <0>       -0.08798
      2 C2         -0.4068    3.2163   -1.3080 CT        1 <0>       -0.08798
      3 C3         -0.0192    1.6440    2.2492 CT        1 <0>       -0.10971
      4 C4          0.9988    5.0675    2.8949 CT        1 <0>       -0.13016
      5 C5         -0.7299    6.1795    1.4777 CT        1 <0>       -0.13016
      6 C6         -0.4527    2.1211   -0.2344 CT        1 <0>       -0.07159
      7 C7          0.1204    2.6388    1.1017 CT        1 <0>        0.15520
      8 C8          0.2376    4.9989    1.5691 CT        1 <0>        0.34992
      9 O1          1.1414    5.1347    0.4720 OH        1 <0>       -0.62480
     10 O2         -0.5788    3.8302    1.4669 OS        1 <0>       -0.42336
     11 H1          1.3438    1.0859   -0.9074 HC        1 <0>        0.03534
     12 H2          0.1973    0.0480   -0.0376 HC        1 <0>        0.03534
     13 H3         -0.1462    0.5370   -1.6936 HC        1 <0>        0.03534
     14 H4          0.6219    3.5300   -1.5136 HC        1 <0>        0.03534
     15 H5         -0.9595    4.1039   -0.9810 HC        1 <0>        0.03534
     16 H6         -0.8508    2.8684   -2.2469 HC        1 <0>        0.03534
     17 H7         -1.0600    1.3510    2.4113 HC        1 <0>        0.04014
     18 H8          0.5584    0.7363    2.0424 HC        1 <0>        0.04014
     19 H9          0.3791    2.0634    3.1795 HC        1 <0>        0.04014
     20 H10         1.7015    4.2324    2.9896 HC        1 <0>        0.05051
     21 H11         1.5457    6.0111    2.9911 HC        1 <0>        0.05051
     22 H12         0.3169    4.9927    3.7488 HC        1 <0>        0.05051
     23 H13        -1.2852    6.1471    0.5326 HC        1 <0>        0.05051
     24 H14        -0.1983    7.1369    1.5056 HC        1 <0>        0.05051
     25 H15        -1.4681    6.1548    2.2865 HC        1 <0>        0.05051
     26 H16        -1.5100    1.8637   -0.0871 HC        1 <0>        0.05394
     27 H17         1.1771    2.9031    0.9762 H1        1 <0>        0.06141
     28 H18         1.5871    5.9949    0.5494 HO        1 <0>        0.40975
@<TRIPOS>BOND
     1    1    6 1
     2    2    6 1
     3    3    7 1
     4    4    8 1
     5    5    8 1
     6    6    7 1
     7    7   10 1
     8    8    9 1
     9    8   10 1
    10    1   11 1
    11    1   12 1
    12    1   13 1
    13    2   14 1
    14    2   15 1
    15    2   16 1
    16    3   17 1
    17    3   18 1
    18    3   19 1
    19    4   20 1
    20    4   21 1
    21    4   22 1
    22    5   23 1
    23    5   24 1
    24    5   25 1
    25    6   26 1
    26    7   27 1
    27    9   28 1
@<TRIPOS>SUBSTRUCTURE
     1 <0>         1 GROUP 0 A     ****
