@<TRIPOS>MOLECULE
AlkEthOH_c1041
   33    32     1     0     0
SMALL
USER_CHARGES

@<TRIPOS>ATOM
      1 C1          1.9942   -1.4694    0.5209 CT        1 <0>       -0.09483
      2 C2         -1.6965   -2.4802   -0.8952 CT        1 <0>       -0.10960
      3 C3         -2.8691   -1.7577   -2.9958 CT        1 <0>       -0.10960
      4 C4         -2.9143   -4.1721   -2.3055 CT        1 <0>       -0.10960
      5 C5         -0.2913   -4.8812   -1.5864 CT        1 <0>       -0.10199
      6 C6          1.3843   -3.8070   -3.1121 CT        1 <0>       -0.10199
      7 C7          1.7915   -2.5917   -0.4867 CT        1 <0>       -0.07517
      8 C8          0.4071   -2.5093   -1.1412 CT        1 <0>       -0.11144
      9 C9         -2.0937   -2.8832   -2.3146 CT        1 <0>        0.16274
     10 C10         0.1536   -3.5662   -2.2352 CT        1 <0>        0.17241
     11 O1         -0.9126   -3.1052   -3.0679 OS        1 <0>       -0.43004
     12 H1          1.2257   -1.4980    1.3001 HC        1 <0>        0.03306
     13 H2          1.9532   -0.4909    0.0320 HC        1 <0>        0.03306
     14 H3          2.9716   -1.5662    1.0040 HC        1 <0>        0.03306
     15 H4         -1.1397   -3.2855   -0.4029 HC        1 <0>        0.04129
     16 H5         -1.0782   -1.5766   -0.8906 HC        1 <0>        0.04129
     17 H6         -2.5835   -2.2958   -0.2785 HC        1 <0>        0.04129
     18 H7         -3.1561   -2.0425   -4.0145 HC        1 <0>        0.04129
     19 H8         -2.2498   -0.8583   -3.0897 HC        1 <0>        0.04129
     20 H9         -3.7758   -1.4978   -2.4400 HC        1 <0>        0.04129
     21 H10        -3.1993   -4.4615   -3.3235 HC        1 <0>        0.04129
     22 H11        -2.3592   -5.0005   -1.8535 HC        1 <0>        0.04129
     23 H12        -3.8490   -4.0350   -1.7499 HC        1 <0>        0.04129
     24 H13        -1.1729   -4.7282   -0.9535 HC        1 <0>        0.04283
     25 H14         0.4928   -5.2770   -0.9306 HC        1 <0>        0.04283
     26 H15        -0.5326   -5.6399   -2.3379 HC        1 <0>        0.04283
     27 H16         1.7236   -2.8815   -3.5887 HC        1 <0>        0.04283
     28 H17         1.1480   -4.4953   -3.9323 HC        1 <0>        0.04283
     29 H18         2.2119   -4.2324   -2.5357 HC        1 <0>        0.04283
     30 H19         2.5767   -2.5308   -1.2483 HC        1 <0>        0.04104
     31 H20         1.9104   -3.5491    0.0314 HC        1 <0>        0.04104
     32 H21        -0.3638   -2.5900   -0.3642 HC        1 <0>        0.04963
     33 H22         0.3076   -1.5110   -1.5882 HC        1 <0>        0.04963
@<TRIPOS>BOND
     1    1    7 1
     2    2    9 1
     3    3    9 1
     4    4    9 1
     5    5   10 1
     6    6   10 1
     7    7    8 1
     8    8   10 1
     9    9   11 1
    10   10   11 1
    11    1   12 1
    12    1   13 1
    13    1   14 1
    14    2   15 1
    15    2   16 1
    16    2   17 1
    17    3   18 1
    18    3   19 1
    19    3   20 1
    20    4   21 1
    21    4   22 1
    22    4   23 1
    23    5   24 1
    24    5   25 1
    25    5   26 1
    26    6   27 1
    27    6   28 1
    28    6   29 1
    29    7   30 1
    30    7   31 1
    31    8   32 1
    32    8   33 1
@<TRIPOS>SUBSTRUCTURE
     1 <0>         1 GROUP 0 A     ****
