@<TRIPOS>MOLECULE
AlkEthOH_c509
   31    30     1     0     0
SMALL
USER_CHARGES

@<TRIPOS>ATOM
      1 C1         -0.0994   -3.6450   -1.6288 CT        1 <0>       -0.10546
      2 C2          1.8384   -5.2540   -1.7146 CT        1 <0>       -0.10546
      3 C3          1.8449    1.3095   -0.6476 CT        1 <0>       -0.13325
      4 C4          3.3099   -1.4008   -3.7175 CT        1 <0>       -0.10132
      5 C5          3.9924   -2.7060   -1.6948 CT        1 <0>       -0.10132
      6 C6          2.0673   -1.0299   -1.5592 CT        1 <0>       -0.10058
      7 C7          1.4139   -3.7942   -1.6644 CT        1 <0>        0.13655
      8 C8          2.6796    0.3802   -1.5208 CT        1 <0>        0.14429
      9 C9          2.8129   -2.0681   -2.4299 CT        1 <0>        0.16452
     10 O1          3.9933    0.3480   -0.9741 OH        1 <0>       -0.60164
     11 O2          1.9228   -3.1204   -2.8044 OS        1 <0>       -0.42990
     12 H1         -0.5653   -4.1126   -2.5016 HC        1 <0>        0.04029
     13 H2         -0.5068   -4.1087   -0.7240 HC        1 <0>        0.04029
     14 H3         -0.3911   -2.5893   -1.5994 HC        1 <0>        0.04029
     15 H4          1.4188   -5.7601   -2.5893 HC        1 <0>        0.04029
     16 H5          1.5050   -5.7791   -0.8130 HC        1 <0>        0.04029
     17 H6          2.9297   -5.3462   -1.7466 HC        1 <0>        0.04029
     18 H7          1.7551    0.9241    0.3725 HC        1 <0>        0.04303
     19 H8          2.2848    2.3122   -0.6079 HC        1 <0>        0.04303
     20 H9          0.8391    1.4247   -1.0662 HC        1 <0>        0.04303
     21 H10         2.4899   -0.9323   -4.2714 HC        1 <0>        0.04595
     22 H11         3.7980   -2.1310   -4.3732 HC        1 <0>        0.04595
     23 H12         4.0623   -0.6352   -3.4959 HC        1 <0>        0.04595
     24 H13         3.6568   -3.1892   -0.7696 HC        1 <0>        0.04595
     25 H14         4.4933   -3.4580   -2.3127 HC        1 <0>        0.04595
     26 H15         4.7275   -1.9547   -1.3873 HC        1 <0>        0.04595
     27 H16         2.0438   -1.4103   -0.5285 HC        1 <0>        0.05565
     28 H17         1.0276   -0.9555   -1.9033 HC        1 <0>        0.05565
     29 H18         1.8490   -3.3173   -0.7801 H1        1 <0>        0.04129
     30 H19         2.7375    0.8105   -2.5256 H1        1 <0>        0.03652
     31 H20         4.3263    1.2590   -0.9967 HO        1 <0>        0.39793
@<TRIPOS>BOND
     1    1    7 1
     2    2    7 1
     3    3    8 1
     4    4    9 1
     5    5    9 1
     6    6    8 1
     7    6    9 1
     8    7   11 1
     9    8   10 1
    10    9   11 1
    11    1   12 1
    12    1   13 1
    13    1   14 1
    14    2   15 1
    15    2   16 1
    16    2   17 1
    17    3   18 1
    18    3   19 1
    19    3   20 1
    20    4   21 1
    21    4   22 1
    22    4   23 1
    23    5   24 1
    24    5   25 1
    25    5   26 1
    26    6   27 1
    27    6   28 1
    28    7   29 1
    29    8   30 1
    30   10   31 1
@<TRIPOS>SUBSTRUCTURE
     1 <0>         1 GROUP 0 A     ****
