@<TRIPOS>MOLECULE
AlkEthOH_c146
   28    27     1     0     0
SMALL
USER_CHARGES

@<TRIPOS>ATOM
      1 C1         -0.8604   -2.3687    0.0829 CT        1 <0>       -0.08982
      2 C2          0.1584   -1.1840   -1.8605 CT        1 <0>       -0.08982
      3 C3          1.4823   -1.5709    0.2211 CT        1 <0>       -0.08982
      4 C4         -0.4865    0.1759    1.8079 CT        1 <0>       -0.08756
      5 C5          0.4343    1.3871   -0.2162 CT        1 <0>       -0.11472
      6 C6         -0.1264    2.7672    0.1326 CT        1 <0>        0.13062
      7 C7          0.0776   -1.2047   -0.3192 CT        1 <0>       -0.07389
      8 C8         -0.4209    0.1838    0.2693 CT        1 <0>        0.16610
      9 O1          0.7498    3.7588   -0.3926 OH        1 <0>       -0.60641
     10 O2         -1.7720    0.4070   -0.1678 OH        1 <0>       -0.60179
     11 H1         -0.9685   -2.4480    1.1691 HC        1 <0>        0.03763
     12 H2         -1.8573   -2.2602   -0.3554 HC        1 <0>        0.03763
     13 H3         -0.4679   -3.3294   -0.2721 HC        1 <0>        0.03763
     14 H4          0.8087   -0.3815   -2.2231 HC        1 <0>        0.03763
     15 H5         -0.8271   -1.0577   -2.3190 HC        1 <0>        0.03763
     16 H6          0.5712   -2.1253   -2.2430 HC        1 <0>        0.03763
     17 H7          2.2131   -0.7905   -0.0237 HC        1 <0>        0.03763
     18 H8          1.8509   -2.5064   -0.2127 HC        1 <0>        0.03763
     19 H9          1.4898   -1.6735    1.3103 HC        1 <0>        0.03763
     20 H10        -1.0853   -0.6652    2.1751 HC        1 <0>        0.04591
     21 H11         0.4993    0.0269    2.2577 HC        1 <0>        0.04591
     22 H12        -0.9168    1.0997    2.2054 HC        1 <0>        0.04591
     23 H13         1.4550    1.3214    0.1778 HC        1 <0>        0.06084
     24 H14         0.5296    1.3615   -1.3083 HC        1 <0>        0.06084
     25 H15        -1.1168    2.9177   -0.3067 H1        1 <0>        0.02952
     26 H16        -0.1842    2.9136    1.2146 H1        1 <0>        0.02952
     27 H17         0.3689    4.6192   -0.1562 HO        1 <0>        0.39978
     28 H18        -1.7394    0.4134   -1.1335 HO        1 <0>        0.40021
@<TRIPOS>BOND
     1    1    7 1
     2    2    7 1
     3    3    7 1
     4    4    8 1
     5    5    6 1
     6    5    8 1
     7    6    9 1
     8    7    8 1
     9    8   10 1
    10    1   11 1
    11    1   12 1
    12    1   13 1
    13    2   14 1
    14    2   15 1
    15    2   16 1
    16    3   17 1
    17    3   18 1
    18    3   19 1
    19    4   20 1
    20    4   21 1
    21    4   22 1
    22    5   23 1
    23    5   24 1
    24    6   25 1
    25    6   26 1
    26    9   27 1
    27   10   28 1
@<TRIPOS>SUBSTRUCTURE
     1 <0>         1 GROUP 0 A     ****
