@<TRIPOS>MOLECULE
AlkEthOH_c166
   26    25     1     0     0
SMALL
USER_CHARGES

@<TRIPOS>ATOM
      1 C1         -0.6993    1.6581    0.2101 CT        1 <0>       -0.08934
      2 C2         -1.7885   -0.3248   -0.8391 CT        1 <0>       -0.08934
      3 C3         -2.3720    0.3313    1.5065 CT        1 <0>       -0.08934
      4 C4         -0.0535   -0.6160    1.0318 CT        1 <0>       -0.09400
      5 C5          3.1682    0.1842   -0.6413 CT        1 <0>        0.33476
      6 C6          1.1530   -0.8380    0.1079 CT        1 <0>        0.34109
      7 C7         -1.2315    0.2351    0.4792 CT        1 <0>       -0.04982
      8 O1          2.8517    0.0934   -2.0231 OH        1 <0>       -0.63748
      9 O2          1.8141   -2.0168    0.5716 OH        1 <0>       -0.63514
     10 O3          2.0141    0.2954    0.1848 OS        1 <0>       -0.41124
     11 H1         -0.2878    2.1087    1.1205 HC        1 <0>        0.03670
     12 H2         -1.4964    2.3156   -0.1548 HC        1 <0>        0.03670
     13 H3          0.0973    1.6478   -0.5427 HC        1 <0>        0.03670
     14 H4         -2.1816   -1.3384   -0.7046 HC        1 <0>        0.03670
     15 H5         -1.0074   -0.3722   -1.6071 HC        1 <0>        0.03670
     16 H6         -2.5887    0.3028   -1.2431 HC        1 <0>        0.03670
     17 H7         -2.7853   -0.6580    1.7320 HC        1 <0>        0.03670
     18 H8         -2.0182    0.7657    2.4487 HC        1 <0>        0.03670
     19 H9         -3.1895    0.9647    1.1473 HC        1 <0>        0.03670
     20 H10         0.3075   -0.1533    1.9617 HC        1 <0>        0.05603
     21 H11        -0.4408   -1.6012    1.3282 HC        1 <0>        0.05603
     22 H12         3.7504    1.0998   -0.5042 H2        1 <0>        0.04736
     23 H13         3.8015   -0.6582   -0.3415 H2        1 <0>        0.04736
     24 H14         0.8154   -1.0133   -0.9187 H2        1 <0>        0.05947
     25 H15         3.6912    0.0213   -2.5079 HO        1 <0>        0.41253
     26 H16         1.1752   -2.7472    0.5141 HO        1 <0>        0.41077
@<TRIPOS>BOND
     1    1    7 1
     2    2    7 1
     3    3    7 1
     4    4    6 1
     5    4    7 1
     6    5    8 1
     7    5   10 1
     8    6    9 1
     9    6   10 1
    10    1   11 1
    11    1   12 1
    12    1   13 1
    13    2   14 1
    14    2   15 1
    15    2   16 1
    16    3   17 1
    17    3   18 1
    18    3   19 1
    19    4   20 1
    20    4   21 1
    21    5   22 1
    22    5   23 1
    23    6   24 1
    24    8   25 1
    25    9   26 1
@<TRIPOS>SUBSTRUCTURE
     1 <0>         1 GROUP 0 A     ****
