@<TRIPOS>MOLECULE
AlkEthOH_c1058
   22    21     1     0     0
SMALL
USER_CHARGES

@<TRIPOS>ATOM
      1 C1         -0.3218    1.4261   -2.4509 CT        1 <0>       -0.09218
      2 C2         -0.8546   -1.7622    0.7821 CT        1 <0>       -0.12421
      3 C3         -0.5088    0.9374   -1.0217 CT        1 <0>       -0.07623
      4 C4          0.4913   -0.1684   -0.6787 CT        1 <0>       -0.09903
      5 C5          0.2048    0.2438    1.8530 CT        1 <0>        0.14253
      6 C6          0.3265   -0.7904    0.7250 CT        1 <0>        0.14714
      7 O1          1.3152    1.1335    1.8294 OH        1 <0>       -0.59182
      8 O2          1.5026   -1.5741    0.9781 OH        1 <0>       -0.59774
      9 H1          0.6948    1.8005   -2.6078 HC        1 <0>        0.03299
     10 H2         -1.0205    2.2403   -2.6672 HC        1 <0>        0.03299
     11 H3         -0.5067    0.6203   -3.1683 HC        1 <0>        0.03299
     12 H4         -0.9765   -2.2063    1.7746 HC        1 <0>        0.04345
     13 H5         -1.7885   -1.2575    0.5092 HC        1 <0>        0.04345
     14 H6         -0.7228   -2.5760    0.0592 HC        1 <0>        0.04345
     15 H7         -1.5351    0.5730   -0.9085 HC        1 <0>        0.04443
     16 H8         -0.3853    1.7874   -0.3425 HC        1 <0>        0.04443
     17 H9          1.5127    0.2208   -0.7868 HC        1 <0>        0.05170
     18 H10         0.4193   -0.9680   -1.4290 HC        1 <0>        0.05170
     19 H11         0.2032   -0.2514    2.8303 H1        1 <0>        0.03485
     20 H12        -0.7114    0.8353    1.7581 H1        1 <0>        0.03485
     21 H13         1.1853    1.7601    2.5588 HO        1 <0>        0.40144
     22 H14         1.5340   -2.2398    0.2777 HO        1 <0>        0.39882
@<TRIPOS>BOND
     1    1    3 1
     2    2    6 1
     3    3    4 1
     4    4    6 1
     5    5    6 1
     6    5    7 1
     7    6    8 1
     8    1    9 1
     9    1   10 1
    10    1   11 1
    11    2   12 1
    12    2   13 1
    13    2   14 1
    14    3   15 1
    15    3   16 1
    16    4   17 1
    17    4   18 1
    18    5   19 1
    19    5   20 1
    20    7   21 1
    21    8   22 1
@<TRIPOS>SUBSTRUCTURE
     1 <0>         1 GROUP 0 A     ****
