@<TRIPOS>MOLECULE
AlkEthOH_c883
   23    22     1     0     0
SMALL
USER_CHARGES

@<TRIPOS>ATOM
      1 C1          3.3517   -3.7155    3.7644 CT        1 <0>       -0.12785
      2 C2         -0.5521    0.0942    1.0158 CT        1 <0>       -0.12100
      3 C3          1.6683    0.5960    2.0745 CT        1 <0>       -0.12100
      4 C4          0.7921   -1.7855    2.0067 CT        1 <0>        0.14612
      5 C5          2.0674   -3.5336    2.9696 CT        1 <0>        0.33716
      6 C6          0.4298   -0.2995    2.1208 CT        1 <0>        0.14887
      7 O1          1.0609   -4.4054    3.4753 OH        1 <0>       -0.62574
      8 O2         -0.2074   -0.0771    3.3815 OH        1 <0>       -0.58578
      9 O3          1.6860   -2.1600    3.0490 OS        1 <0>       -0.41700
     10 H1          3.1994   -3.4556    4.8167 HC        1 <0>        0.05447
     11 H2          3.6830   -4.7595    3.7321 HC        1 <0>        0.05447
     12 H3          4.1581   -3.1012    3.3520 HC        1 <0>        0.05447
     13 H4         -1.4437   -0.5426    1.0409 HC        1 <0>        0.04477
     14 H5         -0.8677    1.1383    1.1102 HC        1 <0>        0.04477
     15 H6         -0.1024   -0.0433    0.0258 HC        1 <0>        0.04477
     16 H7          2.3840    0.3285    2.8598 HC        1 <0>        0.04477
     17 H8          1.3973    1.6428    2.2552 HC        1 <0>        0.04477
     18 H9          2.1737    0.5330    1.1054 HC        1 <0>        0.04477
     19 H10        -0.1019   -2.4117    2.1000 H1        1 <0>        0.04821
     20 H11         1.2768   -1.9987    1.0480 H1        1 <0>        0.04821
     21 H12         2.2550   -3.8016    1.9235 H2        1 <0>        0.03090
     22 H13         1.3781   -5.3198    3.3879 HO        1 <0>        0.41120
     23 H14        -0.4226    0.8666    3.4141 HO        1 <0>        0.39567
@<TRIPOS>BOND
     1    1    5 1
     2    2    6 1
     3    3    6 1
     4    4    6 1
     5    4    9 1
     6    5    7 1
     7    5    9 1
     8    6    8 1
     9    1   10 1
    10    1   11 1
    11    1   12 1
    12    2   13 1
    13    2   14 1
    14    2   15 1
    15    3   16 1
    16    3   17 1
    17    3   18 1
    18    4   19 1
    19    4   20 1
    20    5   21 1
    21    7   22 1
    22    8   23 1
@<TRIPOS>SUBSTRUCTURE
     1 <0>         1 GROUP 0 A     ****
