@<TRIPOS>MOLECULE
AlkEthOH_c164
   25    24     1     0     0
SMALL
USER_CHARGES

@<TRIPOS>ATOM
      1 C1          1.1081   -0.5873    1.6990 CT        1 <0>       -0.08778
      2 C2          1.7429   -1.8713   -0.3435 CT        1 <0>       -0.08778
      3 C3          1.9770    0.6147   -0.3200 CT        1 <0>       -0.08778
      4 C4         -0.3299   -0.4678   -0.4281 CT        1 <0>       -0.09909
      5 C5         -2.7348   -1.2264   -0.3783 CT        1 <0>        0.09396
      6 C6         -1.2830   -1.6357   -0.1311 CT        1 <0>        0.13974
      7 C7          1.1076   -0.5592    0.1628 CT        1 <0>       -0.04887
      8 O1         -3.5791   -2.3434   -0.1202 OH        1 <0>       -0.58676
      9 O2         -0.9796   -2.7252   -1.0002 OH        1 <0>       -0.57992
     10 H1          0.6647    0.3277    2.1093 HC        1 <0>        0.03618
     11 H2          2.1272   -0.6667    2.0931 HC        1 <0>        0.03618
     12 H3          0.5226   -1.4249    2.0907 HC        1 <0>        0.03618
     13 H4          1.7668   -1.9019   -1.4388 HC        1 <0>        0.03618
     14 H5          2.7723   -1.9783    0.0171 HC        1 <0>        0.03618
     15 H6          1.1791   -2.7459    0.0007 HC        1 <0>        0.03618
     16 H7          2.0000    0.6659   -1.4142 HC        1 <0>        0.03618
     17 H8          3.0109    0.5079    0.0283 HC        1 <0>        0.03618
     18 H9          1.6089    1.5751    0.0549 HC        1 <0>        0.03618
     19 H10        -0.7886    0.4584   -0.0556 HC        1 <0>        0.04220
     20 H11        -0.2461   -0.3592   -1.5186 HC        1 <0>        0.04220
     21 H12        -2.8880   -0.9222   -1.4190 H1        1 <0>        0.02460
     22 H13        -3.0360   -0.4134    0.2896 H1        1 <0>        0.02460
     23 H14        -1.1729   -1.9912    0.8978 H1        1 <0>        0.09249
     24 H15        -4.4882   -2.0485   -0.2865 HO        1 <0>        0.39846
     25 H16        -1.1021   -2.3980   -1.9045 HO        1 <0>        0.39411
@<TRIPOS>BOND
     1    1    7 1
     2    2    7 1
     3    3    7 1
     4    4    6 1
     5    4    7 1
     6    5    6 1
     7    5    8 1
     8    6    9 1
     9    1   10 1
    10    1   11 1
    11    1   12 1
    12    2   13 1
    13    2   14 1
    14    2   15 1
    15    3   16 1
    16    3   17 1
    17    3   18 1
    18    4   19 1
    19    4   20 1
    20    5   21 1
    21    5   22 1
    22    6   23 1
    23    8   24 1
    24    9   25 1
@<TRIPOS>SUBSTRUCTURE
     1 <0>         1 GROUP 0 A     ****
