@<TRIPOS>MOLECULE
AlkEthOH_c925
   29    28     1     0     0
SMALL
USER_CHARGES

@<TRIPOS>ATOM
      1 C1         -1.7960   -1.5555   -0.9448 CT        1 <0>       -0.09116
      2 C2          1.0035   -1.2846    1.4224 CT        1 <0>       -0.09070
      3 C3          0.6465    0.6595    2.9395 CT        1 <0>       -0.09070
      4 C4          1.3530    0.7026   -1.5220 CT        1 <0>       -0.08807
      5 C5         -1.0189    1.3553   -1.7749 CT        1 <0>       -0.08807
      6 C6         -0.4140   -1.0759   -1.3743 CT        1 <0>       -0.07266
      7 C7         -0.2134    0.7071    0.5056 CT        1 <0>       -0.06636
      8 C8          0.8867    0.2451    1.4901 CT        1 <0>       -0.06400
      9 C9         -0.0719    0.3935   -1.0153 CT        1 <0>       -0.04540
     10 H1         -2.5926   -0.9242   -1.3470 HC        1 <0>        0.03266
     11 H2         -1.9788   -2.5867   -1.2596 HC        1 <0>        0.03266
     12 H3         -1.8729   -1.5300    0.1474 HC        1 <0>        0.03266
     13 H4          0.0656   -1.7617    1.7265 HC        1 <0>        0.03282
     14 H5          1.7895   -1.6466    2.0938 HC        1 <0>        0.03282
     15 H6          1.2414   -1.6201    0.4071 HC        1 <0>        0.03282
     16 H7         -0.3100    0.2786    3.3043 HC        1 <0>        0.03282
     17 H8          1.4451    0.3015    3.5972 HC        1 <0>        0.03282
     18 H9          0.5981    1.7502    3.0335 HC        1 <0>        0.03282
     19 H10         2.0913    0.0585   -1.0290 HC        1 <0>        0.03342
     20 H11         1.4386    0.5315   -2.6008 HC        1 <0>        0.03342
     21 H12         1.6576    1.7301   -1.3168 HC        1 <0>        0.03342
     22 H13        -2.0649    1.2143   -1.4836 HC        1 <0>        0.03342
     23 H14        -0.9520    1.2046   -2.8584 HC        1 <0>        0.03342
     24 H15        -0.7636    2.4014   -1.5684 HC        1 <0>        0.03342
     25 H16         0.3368   -1.7473   -0.9404 HC        1 <0>        0.03779
     26 H17        -0.3364   -1.2090   -2.4617 HC        1 <0>        0.03779
     27 H18        -0.3601    1.7898    0.6278 HC        1 <0>        0.03911
     28 H19        -1.1541    0.2536    0.8499 HC        1 <0>        0.03911
     29 H20         1.8544    0.6506    1.1747 HC        1 <0>        0.04790
@<TRIPOS>BOND
     1    1    6 1
     2    2    8 1
     3    3    8 1
     4    4    9 1
     5    5    9 1
     6    6    9 1
     7    7    8 1
     8    7    9 1
     9    1   10 1
    10    1   11 1
    11    1   12 1
    12    2   13 1
    13    2   14 1
    14    2   15 1
    15    3   16 1
    16    3   17 1
    17    3   18 1
    18    4   19 1
    19    4   20 1
    20    4   21 1
    21    5   22 1
    22    5   23 1
    23    5   24 1
    24    6   25 1
    25    6   26 1
    26    7   27 1
    27    7   28 1
    28    8   29 1
@<TRIPOS>SUBSTRUCTURE
     1 <0>         1 GROUP 0 A     ****
