@<TRIPOS>MOLECULE
AlkEthOH_c74
   31    30     1     0     0
SMALL
USER_CHARGES

@<TRIPOS>ATOM
      1 C1          2.0746   -2.2447   -0.5721 CT        1 <0>       -0.12660
      2 C2         -0.6010    2.5679   -1.1691 CT        1 <0>       -0.08529
      3 C3         -1.5153    1.6579    0.9616 CT        1 <0>       -0.08529
      4 C4         -2.1248    0.6120   -1.2381 CT        1 <0>       -0.08529
      5 C5         -0.5988   -1.7051    0.8977 CT        1 <0>       -0.12366
      6 C6          0.2852    0.3657   -0.3727 CT        1 <0>       -0.05826
      7 C7          1.8948   -1.3641    0.6608 CT        1 <0>        0.10679
      8 C8         -0.9916    1.2662   -0.4268 CT        1 <0>       -0.04239
      9 C9          0.5100   -0.6591    0.7767 CT        1 <0>        0.17503
     10 O1          2.9286   -0.3751    0.6580 OH        1 <0>       -0.59045
     11 O2          0.5339    0.0473    2.0267 OH        1 <0>       -0.58637
     12 H1          1.9141   -1.6539   -1.4812 HC        1 <0>        0.04608
     13 H2          3.0775   -2.6761   -0.6265 HC        1 <0>        0.04608
     14 H3          1.3364   -3.0520   -0.6028 HC        1 <0>        0.04608
     15 H4         -0.2176    2.3506   -2.1726 HC        1 <0>        0.03405
     16 H5          0.1756    3.1176   -0.6251 HC        1 <0>        0.03405
     17 H6         -1.4610    3.2386   -1.2799 HC        1 <0>        0.03405
     18 H7         -1.8092    0.7738    1.5378 HC        1 <0>        0.03405
     19 H8         -0.7450    2.1836    1.5382 HC        1 <0>        0.03405
     20 H9         -2.3761    2.3300    0.8990 HC        1 <0>        0.03405
     21 H10        -2.4582   -0.3222   -0.7725 HC        1 <0>        0.03405
     22 H11        -1.7898    0.3703   -2.2541 HC        1 <0>        0.03405
     23 H12        -2.9935    1.2636   -1.3474 HC        1 <0>        0.03405
     24 H13        -0.4120   -2.4097    1.7134 HC        1 <0>        0.04403
     25 H14        -1.5671   -1.2235    1.0806 HC        1 <0>        0.04403
     26 H15        -0.7314   -2.2608   -0.0352 HC        1 <0>        0.04403
     27 H16         1.1425    1.0536   -0.3516 HC        1 <0>        0.05570
     28 H17         0.3510   -0.1632   -1.3320 HC        1 <0>        0.05570
     29 H18         2.0590   -1.9716    1.5599 H1        1 <0>        0.02061
     30 H19         3.7666   -0.8594    0.6842 HO        1 <0>        0.39796
     31 H20         0.7214   -0.6171    2.7035 HO        1 <0>        0.39503
@<TRIPOS>BOND
     1    1    7 1
     2    2    8 1
     3    3    8 1
     4    4    8 1
     5    5    9 1
     6    6    8 1
     7    6    9 1
     8    7    9 1
     9    7   10 1
    10    9   11 1
    11    1   12 1
    12    1   13 1
    13    1   14 1
    14    2   15 1
    15    2   16 1
    16    2   17 1
    17    3   18 1
    18    3   19 1
    19    3   20 1
    20    4   21 1
    21    4   22 1
    22    4   23 1
    23    5   24 1
    24    5   25 1
    25    5   26 1
    26    6   27 1
    27    6   28 1
    28    7   29 1
    29   10   30 1
    30   11   31 1
@<TRIPOS>SUBSTRUCTURE
     1 <0>         1 GROUP 0 A     ****
