@<TRIPOS>MOLECULE
AlkEthOH_c114
   20    19     1     0     0
SMALL
USER_CHARGES

@<TRIPOS>ATOM
      1 C1          1.0581   -0.5430    0.1916 CT        1 <0>       -0.12972
      2 C2          2.2580   -1.3945   -4.9363 CT        1 <0>        0.11758
      3 C3          2.2066   -0.6084   -2.7222 CT        1 <0>        0.13614
      4 C4          2.1026    0.4139   -0.3646 CT        1 <0>        0.10384
      5 C5          1.9631    0.6399   -1.8772 CT        1 <0>        0.15303
      6 O1          3.3918   -0.1145   -0.0580 OH        1 <0>       -0.58713
      7 O2          2.9316    1.6163   -2.2771 OH        1 <0>       -0.57039
      8 O3          2.0181   -0.2761   -4.0952 OS        1 <0>       -0.41068
      9 H1          1.1231   -1.5096   -0.3203 HC        1 <0>        0.04647
     10 H2          1.2013   -0.7098    1.2633 HC        1 <0>        0.04647
     11 H3          0.0412   -0.1756    0.0215 HC        1 <0>        0.04647
     12 H4          2.1051   -1.1065   -5.9792 H1        1 <0>        0.03221
     13 H5          1.5771   -2.2062   -4.6678 H1        1 <0>        0.03221
     14 H6          3.2897   -1.7270   -4.7999 H1        1 <0>        0.03221
     15 H7          1.5030   -1.4074   -2.4749 H1        1 <0>        0.04271
     16 H8          3.2320   -0.9747   -2.6085 H1        1 <0>        0.04271
     17 H9          2.0197    1.3726    0.1608 H1        1 <0>        0.02514
     18 H10         0.9789    1.0628   -2.1106 H1        1 <0>        0.04642
     19 H11         3.4413   -0.1750    0.9082 HO        1 <0>        0.39938
     20 H12         2.7644    2.3995   -1.7337 HO        1 <0>        0.39493
@<TRIPOS>BOND
     1    1    4 1
     2    2    8 1
     3    3    5 1
     4    3    8 1
     5    4    5 1
     6    4    6 1
     7    5    7 1
     8    1    9 1
     9    1   10 1
    10    1   11 1
    11    2   12 1
    12    2   13 1
    13    2   14 1
    14    3   15 1
    15    3   16 1
    16    4   17 1
    17    5   18 1
    18    6   19 1
    19    7   20 1
@<TRIPOS>SUBSTRUCTURE
     1 <0>         1 GROUP 0 A     ****
