@<TRIPOS>MOLECULE
AlkEthOH_c1208
   23    22     1     0     0
SMALL
USER_CHARGES

@<TRIPOS>ATOM
      1 C1          3.3072    1.2002   -1.2074 CT        1 <0>       -0.09764
      2 C2         -0.4501   -0.9406   -1.1146 CT        1 <0>       -0.14389
      3 C3         -0.6863    0.1610    1.1531 CT        1 <0>       -0.10280
      4 C4          2.3238    0.0656   -1.0145 CT        1 <0>        0.13467
      5 C5         -0.0393    0.6803    2.4341 CT        1 <0>        0.13399
      6 C6          0.2868   -0.4894    0.1511 CT        1 <0>        0.34810
      7 O1         -1.0341    1.2621    3.2690 OH        1 <0>       -0.60831
      8 O2          0.8240   -1.6320    0.8267 OH        1 <0>       -0.62469
      9 O3          1.2981    0.4882   -0.1280 OS        1 <0>       -0.41912
     10 H1          2.8133    2.0759   -1.6375 HC        1 <0>        0.04355
     11 H2          3.7614    1.4840   -0.2523 HC        1 <0>        0.04355
     12 H3          4.1239    0.8944   -1.8697 HC        1 <0>        0.04355
     13 H4          0.2408   -1.4032   -1.8278 HC        1 <0>        0.05167
     14 H5         -1.2582   -1.6422   -0.8855 HC        1 <0>        0.05167
     15 H6         -0.9010   -0.0882   -1.6348 HC        1 <0>        0.05167
     16 H7         -1.4578   -0.5710    1.4316 HC        1 <0>        0.06549
     17 H8         -1.2432    0.9731    0.6661 HC        1 <0>        0.06549
     18 H9          2.8242   -0.8070   -0.5840 H1        1 <0>        0.03736
     19 H10         1.8704   -0.2161   -1.9695 H1        1 <0>        0.03736
     20 H11         0.7156    1.4440    2.2268 H1        1 <0>        0.03670
     21 H12         0.4338   -0.1296    2.9969 H1        1 <0>        0.03670
     22 H13        -0.5792    1.5764    4.0664 HO        1 <0>        0.40200
     23 H14         0.0889   -2.2218    1.0633 HO        1 <0>        0.41293
@<TRIPOS>BOND
     1    1    4 1
     2    2    6 1
     3    3    5 1
     4    3    6 1
     5    4    9 1
     6    5    7 1
     7    6    8 1
     8    6    9 1
     9    1   10 1
    10    1   11 1
    11    1   12 1
    12    2   13 1
    13    2   14 1
    14    2   15 1
    15    3   16 1
    16    3   17 1
    17    4   18 1
    18    4   19 1
    19    5   20 1
    20    5   21 1
    21    7   22 1
    22    8   23 1
@<TRIPOS>SUBSTRUCTURE
     1 <0>         1 GROUP 0 A     ****
