@<TRIPOS>MOLECULE
AlkEthOH_c862
   27    26     1     0     0
SMALL
USER_CHARGES

@<TRIPOS>ATOM
      1 C1          0.9621   -1.2703   -3.0403 CT        1 <0>       -0.12422
      2 C2          2.2277    1.0232    0.4821 CT        1 <0>       -0.11890
      3 C3         -2.3188    1.7579    1.4589 CT        1 <0>       -0.11421
      4 C4         -1.5829   -0.6158    1.6701 CT        1 <0>       -0.11421
      5 C5          1.2362   -1.1776   -1.5486 CT        1 <0>        0.33679
      6 C6          0.8984    0.2982    0.3018 CT        1 <0>        0.35093
      7 C7         -1.4519    0.6599    0.8369 CT        1 <0>        0.35332
      8 O1          0.6089   -2.2953   -0.9282 OH        1 <0>       -0.62802
      9 O2         -1.9396    0.3847   -0.4757 OH        1 <0>       -0.60912
     10 O3          0.6988    0.0634   -1.0929 OS        1 <0>       -0.49666
     11 O4         -0.1085    1.1608    0.8426 OS        1 <0>       -0.43739
     12 H1         -0.1121   -1.2255   -3.2455 HC        1 <0>        0.05609
     13 H2          1.4326   -0.4355   -3.5727 HC        1 <0>        0.05609
     14 H3          1.3712   -2.1964   -3.4564 HC        1 <0>        0.05609
     15 H4          2.2486    1.9680   -0.0689 HC        1 <0>        0.05461
     16 H5          3.0616    0.3971    0.1490 HC        1 <0>        0.05461
     17 H6          2.3964    1.2580    1.5393 HC        1 <0>        0.05461
     18 H7         -2.2529    2.6915    0.8901 HC        1 <0>        0.05285
     19 H8         -3.3675    1.4483    1.5240 HC        1 <0>        0.05285
     20 H9         -1.9854    1.9771    2.4802 HC        1 <0>        0.05285
     21 H10        -0.9754   -1.4271    1.2555 HC        1 <0>        0.05285
     22 H11        -2.6156   -0.9826    1.6690 HC        1 <0>        0.05285
     23 H12        -1.2616   -0.4522    2.7039 HC        1 <0>        0.05285
     24 H13         2.3180   -1.2254   -1.3785 H2        1 <0>        0.07797
     25 H14         0.9291   -0.6366    0.8706 H2        1 <0>        0.04763
     26 H15         1.0007   -3.0976   -1.3124 HO        1 <0>        0.40870
     27 H16        -2.8625    0.0888   -0.4037 HO        1 <0>        0.41819
@<TRIPOS>BOND
     1    1    5 1
     2    2    6 1
     3    3    7 1
     4    4    7 1
     5    5    8 1
     6    5   10 1
     7    6   10 1
     8    6   11 1
     9    7    9 1
    10    7   11 1
    11    1   12 1
    12    1   13 1
    13    1   14 1
    14    2   15 1
    15    2   16 1
    16    2   17 1
    17    3   18 1
    18    3   19 1
    19    3   20 1
    20    4   21 1
    21    4   22 1
    22    4   23 1
    23    5   24 1
    24    6   25 1
    25    8   26 1
    26    9   27 1
@<TRIPOS>SUBSTRUCTURE
     1 <0>         1 GROUP 0 A     ****
