@<TRIPOS>MOLECULE
AlkEthOH_c593
   16    15     1     0     0
SMALL
USER_CHARGES

@<TRIPOS>ATOM
      1 C1          1.0765    0.0499    0.1958 CT        1 <0>       -0.10787
      2 C2          2.8427    1.0382    1.6976 CT        1 <0>       -0.10787
      3 C3         -0.5900    2.2629    1.4316 CT        1 <0>        0.32773
      4 C4          1.3532    0.9191    1.4130 CT        1 <0>        0.13773
      5 O1         -0.9326    2.0115    2.7869 OH        1 <0>       -0.63025
      6 O2          0.8123    2.2184    1.1940 OS        1 <0>       -0.41249
      7 H1          1.5701    0.4471   -0.6963 HC        1 <0>        0.04222
      8 H2          1.4331   -0.9713    0.3679 HC        1 <0>        0.04222
      9 H3          0.0011   -0.0220   -0.0013 HC        1 <0>        0.04222
     10 H4          3.3785    1.4589    0.8413 HC        1 <0>        0.04222
     11 H5          3.2667    0.0547    1.9270 HC        1 <0>        0.04222
     12 H6          3.0274    1.6718    2.5721 HC        1 <0>        0.04222
     13 H7         -1.1286    1.5738    0.7708 H2        1 <0>        0.03506
     14 H8         -0.9234    3.2777    1.1961 H2        1 <0>        0.03506
     15 H9          0.8468    0.4961    2.2868 H1        1 <0>        0.05991
     16 H10        -1.9011    2.0621    2.8530 HO        1 <0>        0.40967
@<TRIPOS>BOND
     1    1    4 1
     2    2    4 1
     3    3    5 1
     4    3    6 1
     5    4    6 1
     6    1    7 1
     7    1    8 1
     8    1    9 1
     9    2   10 1
    10    2   11 1
    11    2   12 1
    12    3   13 1
    13    3   14 1
    14    4   15 1
    15    5   16 1
@<TRIPOS>SUBSTRUCTURE
     1 <0>         1 GROUP 0 A     ****
