@<TRIPOS>MOLECULE
AlkEthOH_c1044
   30    29     1     0     0
SMALL
USER_CHARGES

@<TRIPOS>ATOM
      1 C1          1.4477   -1.9155    1.0786 CT        1 <0>       -0.09369
      2 C2         -0.5895   -2.0884   -5.2142 CT        1 <0>       -0.10614
      3 C3         -1.5518   -0.8039   -3.2712 CT        1 <0>       -0.10614
      4 C4         -0.2913   -4.8812   -1.5864 CT        1 <0>       -0.10052
      5 C5          1.3843   -3.8070   -3.1121 CT        1 <0>       -0.10052
      6 C6          1.1662   -3.0326    0.0842 CT        1 <0>       -0.07590
      7 C7          0.4071   -2.5093   -1.1412 CT        1 <0>       -0.10553
      8 C8         -0.5745   -1.8850   -3.7069 CT        1 <0>        0.13663
      9 C9          0.1536   -3.5662   -2.2352 CT        1 <0>        0.15580
     10 O1         -0.9126   -3.1052   -3.0679 OS        1 <0>       -0.42481
     11 H1          0.5183   -1.4394    1.4075 HC        1 <0>        0.03318
     12 H2          2.0900   -1.1481    0.6352 HC        1 <0>        0.03318
     13 H3          1.9562   -2.3142    1.9620 HC        1 <0>        0.03318
     14 H4         -1.5886   -2.3598   -5.5685 HC        1 <0>        0.04070
     15 H5         -0.2736   -1.1726   -5.7254 HC        1 <0>        0.04070
     16 H6          0.1137   -2.8736   -5.5133 HC        1 <0>        0.04070
     17 H7         -2.5739   -1.0446   -3.5791 HC        1 <0>        0.04070
     18 H8         -1.2726    0.1609   -3.7082 HC        1 <0>        0.04070
     19 H9         -1.5354   -0.6729   -2.1836 HC        1 <0>        0.04070
     20 H10        -1.1729   -4.7282   -0.9535 HC        1 <0>        0.04324
     21 H11         0.4928   -5.2770   -0.9306 HC        1 <0>        0.04324
     22 H12        -0.5326   -5.6399   -2.3379 HC        1 <0>        0.04324
     23 H13         1.7236   -2.8815   -3.5887 HC        1 <0>        0.04324
     24 H14         1.1480   -4.4953   -3.9323 HC        1 <0>        0.04324
     25 H15         2.2119   -4.2324   -2.5357 HC        1 <0>        0.04324
     26 H16         2.1167   -3.4837   -0.2211 HC        1 <0>        0.04149
     27 H17         0.5820   -3.8086    0.5900 HC        1 <0>        0.04149
     28 H18        -0.5483   -2.0783   -0.8159 HC        1 <0>        0.04738
     29 H19         0.9966   -1.6902   -1.5747 HC        1 <0>        0.04738
     30 H20         0.4365   -1.6151   -3.3846 H1        1 <0>        0.03990
@<TRIPOS>BOND
     1    1    6 1
     2    2    8 1
     3    3    8 1
     4    4    9 1
     5    5    9 1
     6    6    7 1
     7    7    9 1
     8    8   10 1
     9    9   10 1
    10    1   11 1
    11    1   12 1
    12    1   13 1
    13    2   14 1
    14    2   15 1
    15    2   16 1
    16    3   17 1
    17    3   18 1
    18    3   19 1
    19    4   20 1
    20    4   21 1
    21    4   22 1
    22    5   23 1
    23    5   24 1
    24    5   25 1
    25    6   26 1
    26    6   27 1
    27    7   28 1
    28    7   29 1
    29    8   30 1
@<TRIPOS>SUBSTRUCTURE
     1 <0>         1 GROUP 0 A     ****
