@<TRIPOS>MOLECULE
AlkEthOH_c929
   21    20     1     0     0
SMALL
USER_CHARGES

@<TRIPOS>ATOM
      1 C1         -2.1416   -0.4619    0.1591 CT        1 <0>       -0.08957
      2 C2          1.3530    1.2521    0.5190 CT        1 <0>       -0.08838
      3 C3          0.7642   -1.1112    1.0745 CT        1 <0>       -0.08838
      4 C4         -1.0483    0.5610    0.4431 CT        1 <0>       -0.07027
      5 C5          0.6201   -0.3243   -1.3000 CT        1 <0>        0.13743
      6 C6          0.4050    0.0837    0.1734 CT        1 <0>       -0.04866
      7 O1          0.3614    0.7674   -2.1732 OH        1 <0>       -0.60005
      8 H1         -1.9888   -1.3845    0.7257 HC        1 <0>        0.03178
      9 H2         -2.1339   -0.7253   -0.9040 HC        1 <0>        0.03178
     10 H3         -3.1347   -0.0681    0.3918 HC        1 <0>        0.03178
     11 H4          1.1369    2.1315   -0.0986 HC        1 <0>        0.03678
     12 H5          1.2476    1.5504    1.5682 HC        1 <0>        0.03678
     13 H6          2.4019    0.9817    0.3539 HC        1 <0>        0.03678
     14 H7          0.1229   -1.9760    0.8758 HC        1 <0>        0.03678
     15 H8          0.6621   -0.8527    2.1343 HC        1 <0>        0.03678
     16 H9          1.7996   -1.4312    0.9095 HC        1 <0>        0.03678
     17 H10        -1.2591    1.4583   -0.1528 HC        1 <0>        0.04603
     18 H11        -1.1370    0.8693    1.4933 HC        1 <0>        0.04603
     19 H12        -0.0368   -1.1531   -1.5836 H1        1 <0>        0.02137
     20 H13         1.6539   -0.6505   -1.4630 H1        1 <0>        0.02137
     21 H14         0.5140    0.4455   -3.0762 HO        1 <0>        0.39706
@<TRIPOS>BOND
     1    1    4 1
     2    2    6 1
     3    3    6 1
     4    4    6 1
     5    5    6 1
     6    5    7 1
     7    1    8 1
     8    1    9 1
     9    1   10 1
    10    2   11 1
    11    2   12 1
    12    2   13 1
    13    3   14 1
    14    3   15 1
    15    3   16 1
    16    4   17 1
    17    4   18 1
    18    5   19 1
    19    5   20 1
    20    7   21 1
@<TRIPOS>SUBSTRUCTURE
     1 <0>         1 GROUP 0 A     ****
