@<TRIPOS>MOLECULE
AlkEthOH_c1055
   24    23     1     0     0
SMALL
USER_CHARGES

@<TRIPOS>ATOM
      1 C1          0.9352    2.7911   -0.1483 CT        1 <0>       -0.09260
      2 C2         -1.4343   -0.8967   -1.8064 CT        1 <0>       -0.09061
      3 C3          0.7960   -1.5192    1.3365 CT        1 <0>       -0.12383
      4 C4          0.8571    1.2816   -0.3266 CT        1 <0>       -0.07666
      5 C5         -0.3521   -1.4660   -0.8955 CT        1 <0>       -0.06403
      6 C6         -0.2315    0.6746    0.5612 CT        1 <0>       -0.10468
      7 C7         -0.3310   -0.8663    0.5257 CT        1 <0>        0.15209
      8 O1         -1.5671   -1.2284    1.1590 OH        1 <0>       -0.60175
      9 H1         -0.0292    3.2510   -0.3860 HC        1 <0>        0.03386
     10 H2          1.1905    3.0516    0.8839 HC        1 <0>        0.03386
     11 H3          1.6910    3.2258   -0.8102 HC        1 <0>        0.03386
     12 H4         -1.3243    0.1847   -1.9316 HC        1 <0>        0.03746
     13 H5         -2.4222   -1.0846   -1.3731 HC        1 <0>        0.03746
     14 H6         -1.4150   -1.3649   -2.7948 HC        1 <0>        0.03746
     15 H7          0.8519   -1.1254    2.3558 HC        1 <0>        0.04214
     16 H8          1.7662   -1.3550    0.8533 HC        1 <0>        0.04214
     17 H9          0.6606   -2.6054    1.3906 HC        1 <0>        0.04214
     18 H10         1.8332    0.8499   -0.0824 HC        1 <0>        0.04153
     19 H11         0.6567    1.0652   -1.3809 HC        1 <0>        0.04153
     20 H12        -0.5303   -2.5471   -0.8209 HC        1 <0>        0.04614
     21 H13         0.6235   -1.3417   -1.3797 HC        1 <0>        0.04614
     22 H14        -1.2051    1.1082    0.2975 HC        1 <0>        0.04550
     23 H15        -0.0642    0.9930    1.5997 HC        1 <0>        0.04550
     24 H16        -1.5157   -0.8821    2.0603 HO        1 <0>        0.39535
@<TRIPOS>BOND
     1    1    4 1
     2    2    5 1
     3    3    7 1
     4    4    6 1
     5    5    7 1
     6    6    7 1
     7    7    8 1
     8    1    9 1
     9    1   10 1
    10    1   11 1
    11    2   12 1
    12    2   13 1
    13    2   14 1
    14    3   15 1
    15    3   16 1
    16    3   17 1
    17    4   18 1
    18    4   19 1
    19    5   20 1
    20    5   21 1
    21    6   22 1
    22    6   23 1
    23    8   24 1
@<TRIPOS>SUBSTRUCTURE
     1 <0>         1 GROUP 0 A     ****
