@<TRIPOS>MOLECULE
AlkEthOH_c1111
   28    27     1     0     0
SMALL
USER_CHARGES

@<TRIPOS>ATOM
      1 C1         -0.5353   -0.7068    3.1347 CT        1 <0>       -0.09370
      2 C2         -0.2060   -0.9473   -2.2830 CT        1 <0>       -0.10800
      3 C3         -2.4586    0.0751   -2.7185 CT        1 <0>       -0.10800
      4 C4         -0.3800    1.4505   -3.0280 CT        1 <0>       -0.10800
      5 C5         -0.7310    0.2599    1.9773 CT        1 <0>       -0.07880
      6 C6          0.3458    0.0751    0.9070 CT        1 <0>       -0.12133
      7 C7          0.1510    1.0116   -0.2879 CT        1 <0>        0.33260
      8 C8         -1.0381    0.3327   -2.2204 CT        1 <0>        0.15573
      9 O1          0.2504    2.3468    0.2013 OH        1 <0>       -0.60064
     10 O2         -1.1286    0.7474   -0.8643 OS        1 <0>       -0.40866
     11 H1         -0.5502   -1.7445    2.7862 HC        1 <0>        0.03181
     12 H2          0.4196   -0.5270    3.6388 HC        1 <0>        0.03181
     13 H3         -1.3363   -0.5843    3.8705 HC        1 <0>        0.03181
     14 H4          0.8144   -0.7665   -1.9263 HC        1 <0>        0.04417
     15 H5         -0.6489   -1.7463   -1.6795 HC        1 <0>        0.04417
     16 H6         -0.1139   -1.3037   -3.3153 HC        1 <0>        0.04417
     17 H7         -3.0592    0.9909   -2.6753 HC        1 <0>        0.04417
     18 H8         -2.9680   -0.6584   -2.0830 HC        1 <0>        0.04417
     19 H9         -2.4646   -0.2952   -3.7487 HC        1 <0>        0.04417
     20 H10        -0.9767    2.3688   -2.9833 HC        1 <0>        0.04417
     21 H11         0.6268    1.6744   -2.6608 HC        1 <0>        0.04417
     22 H12        -0.3116    1.1775   -4.0873 HC        1 <0>        0.04417
     23 H13        -0.7104    1.2853    2.3634 HC        1 <0>        0.05406
     24 H14        -1.7221    0.0978    1.5380 HC        1 <0>        0.05406
     25 H15         1.3324    0.2568    1.3532 HC        1 <0>        0.04876
     26 H16         0.3531   -0.9646    0.5565 HC        1 <0>        0.04876
     27 H17         0.9479    0.8372   -1.0219 H2        1 <0>        0.03498
     28 H18         1.1349    2.4449    0.5928 HO        1 <0>        0.40522
@<TRIPOS>BOND
     1    1    5 1
     2    2    8 1
     3    3    8 1
     4    4    8 1
     5    5    6 1
     6    6    7 1
     7    7    9 1
     8    7   10 1
     9    8   10 1
    10    1   11 1
    11    1   12 1
    12    1   13 1
    13    2   14 1
    14    2   15 1
    15    2   16 1
    16    3   17 1
    17    3   18 1
    18    3   19 1
    19    4   20 1
    20    4   21 1
    21    4   22 1
    22    5   23 1
    23    5   24 1
    24    6   25 1
    25    6   26 1
    26    7   27 1
    27    9   28 1
@<TRIPOS>SUBSTRUCTURE
     1 <0>         1 GROUP 0 A     ****
