@<TRIPOS>MOLECULE
AlkEthOH_c859
   17    16     1     0     0
SMALL
USER_CHARGES

@<TRIPOS>ATOM
      1 C1          0.6430    0.6622    2.2986 CT        1 <0>       -0.12338
      2 C2         -0.7886    0.7803   -2.2151 CT        1 <0>       -0.12336
      3 C3          0.3707   -0.2674    1.1272 CT        1 <0>        0.34157
      4 C4         -0.3242   -0.2049   -1.1547 CT        1 <0>        0.34157
      5 O1         -0.6277   -1.1943    1.5400 OH        1 <0>       -0.63509
      6 O2          0.8333   -0.8619   -1.6594 OH        1 <0>       -0.63509
      7 O3         -0.0549    0.5418    0.0313 OS        1 <0>       -0.41092
      8 H1         -0.2575    1.2201    2.5745 HC        1 <0>        0.05255
      9 H2          1.4157    1.3950    2.0391 HC        1 <0>        0.05255
     10 H3          1.0018    0.1021    3.1679 HC        1 <0>        0.05255
     11 H4         -0.0199    1.5334   -2.4147 HC        1 <0>        0.05255
     12 H5         -1.6882    1.3107   -1.8823 HC        1 <0>        0.05255
     13 H6         -1.0393    0.2637   -3.1470 HC        1 <0>        0.05255
     14 H7          1.2920   -0.8075    0.8800 H2        1 <0>        0.05357
     15 H8         -1.1172   -0.9416   -0.9817 H2        1 <0>        0.05357
     16 H9         -0.2732   -1.6793    2.3043 HO        1 <0>        0.41113
     17 H10         0.5732   -1.3165   -2.4783 HO        1 <0>        0.41113
@<TRIPOS>BOND
     1    1    3 1
     2    2    4 1
     3    3    5 1
     4    3    7 1
     5    4    6 1
     6    4    7 1
     7    1    8 1
     8    1    9 1
     9    1   10 1
    10    2   11 1
    11    2   12 1
    12    2   13 1
    13    3   14 1
    14    4   15 1
    15    5   16 1
    16    6   17 1
@<TRIPOS>SUBSTRUCTURE
     1 <0>         1 GROUP 0 A     ****
