@<TRIPOS>MOLECULE
AlkEthOH_c298
   28    27     1     0     0
SMALL
USER_CHARGES

@<TRIPOS>ATOM
      1 C1          0.4103   -1.9400    1.6799 CT        1 <0>       -0.09072
      2 C2          1.1180    0.3701    2.3268 CT        1 <0>       -0.09072
      3 C3         -2.6548    1.5734   -1.3074 CT        1 <0>       -0.13477
      4 C4          0.8832   -1.2177   -1.2615 CT        1 <0>       -0.12549
      5 C5         -0.7316    0.4169   -0.1554 CT        1 <0>       -0.06011
      6 C6          1.1701   -0.6919    1.2185 CT        1 <0>       -0.09144
      7 C7         -1.2182    1.0858   -1.4552 CT        1 <0>        0.14529
      8 C8          0.7153   -0.1443   -0.1749 CT        1 <0>        0.15937
      9 O1         -0.4173    2.2171   -1.7774 OH        1 <0>       -0.57215
     10 O2          1.5977    0.9343   -0.5193 OH        1 <0>       -0.57151
     11 H1         -0.6590   -1.7416    1.7951 HC        1 <0>        0.03748
     12 H2          0.7945   -2.3237    2.6296 HC        1 <0>        0.03748
     13 H3          0.5090   -2.7419    0.9394 HC        1 <0>        0.03748
     14 H4          0.0972    0.7240    2.5022 HC        1 <0>        0.03748
     15 H5          1.7461    1.2332    2.0857 HC        1 <0>        0.03748
     16 H6          1.4855   -0.0471    3.2711 HC        1 <0>        0.03748
     17 H7         -2.7347    2.2779   -0.4722 HC        1 <0>        0.04111
     18 H8         -3.0022    2.0720   -2.2175 HC        1 <0>        0.04111
     19 H9         -3.3312    0.7415   -1.0817 HC        1 <0>        0.04111
     20 H10         1.8998   -1.6217   -1.2855 HC        1 <0>        0.04169
     21 H11         0.6509   -0.8082   -2.2515 HC        1 <0>        0.04169
     22 H12         0.1831   -2.0474   -1.1144 HC        1 <0>        0.04169
     23 H13        -0.7942    1.1754    0.6350 HC        1 <0>        0.05851
     24 H14        -1.4321   -0.3868    0.0976 HC        1 <0>        0.05851
     25 H15         2.2292   -0.9728    1.1274 HC        1 <0>        0.03968
     26 H16        -1.1780    0.3866   -2.2963 H1        1 <0>        0.02579
     27 H17        -0.7640    2.5755   -2.6098 HO        1 <0>        0.38861
     28 H18         2.4877    0.5568   -0.5299 HO        1 <0>        0.38787
@<TRIPOS>BOND
     1    1    6 1
     2    2    6 1
     3    3    7 1
     4    4    8 1
     5    5    7 1
     6    5    8 1
     7    6    8 1
     8    7    9 1
     9    8   10 1
    10    1   11 1
    11    1   12 1
    12    1   13 1
    13    2   14 1
    14    2   15 1
    15    2   16 1
    16    3   17 1
    17    3   18 1
    18    3   19 1
    19    4   20 1
    20    4   21 1
    21    4   22 1
    22    5   23 1
    23    5   24 1
    24    6   25 1
    25    7   26 1
    26    9   27 1
    27   10   28 1
@<TRIPOS>SUBSTRUCTURE
     1 <0>         1 GROUP 0 A     ****
