@<TRIPOS>MOLECULE
AlkEthOH_c426
   33    32     1     0     0
SMALL
USER_CHARGES

@<TRIPOS>ATOM
      1 C1         -1.0433    0.2797   -0.2505 CT        1 <0>       -0.09042
      2 C2         -2.7747    0.8787   -1.9554 CT        1 <0>       -0.09042
      3 C3          1.5242   -0.0271   -2.9022 CT        1 <0>       -0.10479
      4 C4          3.6746    2.1229   -1.5169 CT        1 <0>       -0.10728
      5 C5          3.2987    4.1810   -2.9069 CT        1 <0>       -0.10728
      6 C6          1.7795    3.6860   -0.9691 CT        1 <0>       -0.10728
      7 C7         -0.3932    1.5685   -2.3523 CT        1 <0>       -0.08744
      8 C8         -1.3085    0.4923   -1.7411 CT        1 <0>       -0.06754
      9 C9          1.1132    1.2947   -2.2678 CT        1 <0>        0.14022
     10 C10         2.6292    3.0811   -2.0858 CT        1 <0>        0.15253
     11 O1          1.7784    2.3548   -2.9577 OS        1 <0>       -0.42482
     12 H1         -1.1958    1.2047    0.3157 HC        1 <0>        0.03347
     13 H2         -0.0200   -0.0647   -0.0734 HC        1 <0>        0.03347
     14 H3         -1.7163   -0.4817    0.1588 HC        1 <0>        0.03347
     15 H4         -3.0042    1.8269   -1.4577 HC        1 <0>        0.03347
     16 H5         -2.9926    1.0015   -3.0217 HC        1 <0>        0.03347
     17 H6         -3.4505    0.1139   -1.5574 HC        1 <0>        0.03347
     18 H7          1.1957   -0.0787   -3.9459 HC        1 <0>        0.04091
     19 H8          2.6154   -0.1234   -2.9127 HC        1 <0>        0.04091
     20 H9          1.1137   -0.8837   -2.3607 HC        1 <0>        0.04091
     21 H10         3.1981    1.3319   -0.9268 HC        1 <0>        0.04236
     22 H11         4.2676    1.6558   -2.3100 HC        1 <0>        0.04236
     23 H12         4.3568    2.6469   -0.8377 HC        1 <0>        0.04236
     24 H13         2.5523    4.8708   -3.3171 HC        1 <0>        0.04236
     25 H14         3.8321    3.7572   -3.7656 HC        1 <0>        0.04236
     26 H15         4.0103    4.7570   -2.3066 HC        1 <0>        0.04236
     27 H16         1.0296    4.3733   -1.3769 HC        1 <0>        0.04236
     28 H17         1.2621    2.9127   -0.3921 HC        1 <0>        0.04236
     29 H18         2.3992    4.2756   -0.2838 HC        1 <0>        0.04236
     30 H19        -0.5949    2.5365   -1.8727 HC        1 <0>        0.05057
     31 H20        -0.6643    1.7160   -3.4070 HC        1 <0>        0.05057
     32 H21        -1.1426   -0.4591   -2.2600 HC        1 <0>        0.04718
     33 H22         1.4485    1.3303   -1.2263 H1        1 <0>        0.04141
@<TRIPOS>BOND
     1    1    8 1
     2    2    8 1
     3    3    9 1
     4    4   10 1
     5    5   10 1
     6    6   10 1
     7    7    8 1
     8    7    9 1
     9    9   11 1
    10   10   11 1
    11    1   12 1
    12    1   13 1
    13    1   14 1
    14    2   15 1
    15    2   16 1
    16    2   17 1
    17    3   18 1
    18    3   19 1
    19    3   20 1
    20    4   21 1
    21    4   22 1
    22    4   23 1
    23    5   24 1
    24    5   25 1
    25    5   26 1
    26    6   27 1
    27    6   28 1
    28    6   29 1
    29    7   30 1
    30    7   31 1
    31    8   32 1
    32    9   33 1
@<TRIPOS>SUBSTRUCTURE
     1 <0>         1 GROUP 0 A     ****
