@<TRIPOS>MOLECULE
AlkEthOH_c1069
   23    22     1     0     0
SMALL
USER_CHARGES

@<TRIPOS>ATOM
      1 C1          0.2295   -2.9720    1.3736 CT        1 <0>       -0.09241
      2 C2         -1.5003    1.5836    0.1489 CT        1 <0>       -0.14614
      3 C3          0.3769   -1.8241    0.3861 CT        1 <0>       -0.08118
      4 C4         -0.6188   -0.6955    0.6894 CT        1 <0>       -0.09202
      5 C5          1.1925    2.1274   -0.9122 CT        1 <0>        0.33433
      6 C6         -0.4813    0.5138   -0.2605 CT        1 <0>        0.34720
      7 O1          2.6037    2.2626   -1.0326 OH        1 <0>       -0.58556
      8 O2         -0.7727    0.0491   -1.5798 OH        1 <0>       -0.62112
      9 O3          0.8660    0.9868   -0.1294 OS        1 <0>       -0.39976
     10 H1          0.3845   -2.6141    2.3964 HC        1 <0>        0.03229
     11 H2          0.9645   -3.7583    1.1740 HC        1 <0>        0.03229
     12 H3         -0.7708   -3.4130    1.3160 HC        1 <0>        0.03229
     13 H4         -1.4376    2.4631   -0.5011 HC        1 <0>        0.05076
     14 H5         -2.5251    1.2075    0.0573 HC        1 <0>        0.05076
     15 H6         -1.3307    1.9211    1.1767 HC        1 <0>        0.05076
     16 H7          0.2176   -2.2068   -0.6282 HC        1 <0>        0.05874
     17 H8          1.4044   -1.4465    0.4338 HC        1 <0>        0.05874
     18 H9         -1.6351   -1.1039    0.6177 HC        1 <0>        0.05088
     19 H10        -0.4636   -0.3654    1.7248 HC        1 <0>        0.05088
     20 H11         0.8253    3.0321   -0.4204 H2        1 <0>        0.02421
     21 H12         0.7647    2.0608   -1.9175 H2        1 <0>        0.02421
     22 H13         2.7693    3.0531   -1.5738 HO        1 <0>        0.40623
     23 H14        -1.6677   -0.3295   -1.5805 HO        1 <0>        0.41362
@<TRIPOS>BOND
     1    1    3 1
     2    2    6 1
     3    3    4 1
     4    4    6 1
     5    5    7 1
     6    5    9 1
     7    6    8 1
     8    6    9 1
     9    1   10 1
    10    1   11 1
    11    1   12 1
    12    2   13 1
    13    2   14 1
    14    2   15 1
    15    3   16 1
    16    3   17 1
    17    4   18 1
    18    4   19 1
    19    5   20 1
    20    5   21 1
    21    7   22 1
    22    8   23 1
@<TRIPOS>SUBSTRUCTURE
     1 <0>         1 GROUP 0 A     ****
