@<TRIPOS>MOLECULE
AlkEthOH_c890
   20    19     1     0     0
SMALL
USER_CHARGES

@<TRIPOS>ATOM
      1 C1          2.4308   -4.3070    0.4771 CT        1 <0>       -0.12636
      2 C2          0.7769   -0.0127   -0.7752 CT        1 <0>       -0.09075
      3 C3          0.3988    0.9317   -1.9043 CT        1 <0>        0.13283
      4 C4          0.9970   -1.4335   -1.2704 CT        1 <0>        0.13957
      5 C5          1.5866   -3.6235   -0.5879 CT        1 <0>        0.32908
      6 O1          0.2241    2.2375   -1.3720 OH        1 <0>       -0.59832
      7 O2          0.3689   -4.3398   -0.7698 OH        1 <0>       -0.62278
      8 O3          1.3656   -2.2715   -0.1832 OS        1 <0>       -0.45208
      9 H1          1.9130   -4.3123    1.4414 HC        1 <0>        0.05546
     10 H2          2.6251   -5.3511    0.2068 HC        1 <0>        0.05546
     11 H3          3.3995   -3.8098    0.5881 HC        1 <0>        0.05546
     12 H4          1.6787    0.3512   -0.2665 HC        1 <0>        0.06760
     13 H5         -0.0006    0.0001   -0.0006 HC        1 <0>        0.06760
     14 H6          1.1863    0.9678   -2.6637 H1        1 <0>        0.02043
     15 H7         -0.5382    0.6201   -2.3769 H1        1 <0>        0.02043
     16 H8          1.8025   -1.4679   -2.0104 H1        1 <0>        0.03261
     17 H9          0.0907   -1.8404   -1.7302 H1        1 <0>        0.03261
     18 H10         2.1333   -3.6358   -1.5378 H2        1 <0>        0.07102
     19 H11        -0.0157    2.8138   -2.1158 HO        1 <0>        0.39983
     20 H12         0.5867   -5.2446   -1.0497 HO        1 <0>        0.41030
@<TRIPOS>BOND
     1    1    5 1
     2    2    3 1
     3    2    4 1
     4    3    6 1
     5    4    8 1
     6    5    7 1
     7    5    8 1
     8    1    9 1
     9    1   10 1
    10    1   11 1
    11    2   12 1
    12    2   13 1
    13    3   14 1
    14    3   15 1
    15    4   16 1
    16    4   17 1
    17    5   18 1
    18    6   19 1
    19    7   20 1
@<TRIPOS>SUBSTRUCTURE
     1 <0>         1 GROUP 0 A     ****
