@<TRIPOS>MOLECULE
AlkEthOH_c1170
   28    27     1     0     0
SMALL
USER_CHARGES

@<TRIPOS>ATOM
      1 C1         -1.9797    3.3497   -0.9622 CT        1 <0>       -0.09408
      2 C2         -1.2713   -1.5490   -0.0525 CT        1 <0>       -0.08793
      3 C3          1.1780   -1.8042    0.3223 CT        1 <0>       -0.08793
      4 C4          0.3446   -0.9650   -1.8738 CT        1 <0>       -0.08793
      5 C5          0.0104    0.6376    1.7270 CT        1 <0>       -0.14985
      6 C6         -0.8619    2.7081   -0.1681 CT        1 <0>        0.12948
      7 C7          0.1038   -0.9133   -0.3502 CT        1 <0>       -0.02046
      8 C8          0.2053    0.5614    0.2032 CT        1 <0>        0.34966
      9 O1          1.5166    1.0452   -0.1191 OH        1 <0>       -0.60935
     10 O2         -0.8125    1.3229   -0.4753 OS        1 <0>       -0.44112
     11 H1         -1.8099    3.2364   -2.0365 HC        1 <0>        0.04523
     12 H2         -2.9436    2.8973   -0.7069 HC        1 <0>        0.04523
     13 H3         -2.0566    4.4165   -0.7274 HC        1 <0>        0.04523
     14 H4         -2.0886   -0.9723   -0.4981 HC        1 <0>        0.04061
     15 H5         -1.3355   -2.5750   -0.4278 HC        1 <0>        0.04061
     16 H6         -1.4561   -1.5950    1.0274 HC        1 <0>        0.04061
     17 H7          2.1882   -1.4156    0.1547 HC        1 <0>        0.04061
     18 H8          1.1527   -2.8238   -0.0799 HC        1 <0>        0.04061
     19 H9          1.0202   -1.8772    1.4038 HC        1 <0>        0.04061
     20 H10         1.3099   -0.5257   -2.1455 HC        1 <0>        0.04061
     21 H11        -0.4264   -0.4013   -2.4123 HC        1 <0>        0.04061
     22 H12         0.3217   -1.9924   -2.2523 HC        1 <0>        0.04061
     23 H13         0.0829    1.6636    2.0985 HC        1 <0>        0.05196
     24 H14        -0.9911    0.2964    2.0129 HC        1 <0>        0.05196
     25 H15         0.7242    0.0033    2.2608 HC        1 <0>        0.05196
     26 H16        -1.0378    2.8250    0.9054 H1        1 <0>        0.02155
     27 H17         0.1005    3.1606   -0.4250 H1        1 <0>        0.02155
     28 H18         1.5901    1.9655    0.1839 HO        1 <0>        0.39935
@<TRIPOS>BOND
     1    1    6 1
     2    2    7 1
     3    3    7 1
     4    4    7 1
     5    5    8 1
     6    6   10 1
     7    7    8 1
     8    8    9 1
     9    8   10 1
    10    1   11 1
    11    1   12 1
    12    1   13 1
    13    2   14 1
    14    2   15 1
    15    2   16 1
    16    3   17 1
    17    3   18 1
    18    3   19 1
    19    4   20 1
    20    4   21 1
    21    4   22 1
    22    5   23 1
    23    5   24 1
    24    5   25 1
    25    6   26 1
    26    6   27 1
    27    9   28 1
@<TRIPOS>SUBSTRUCTURE
     1 <0>         1 GROUP 0 A     ****
