@<TRIPOS>MOLECULE
AlkEthOH_c155
   33    32     1     0     0
SMALL
USER_CHARGES

@<TRIPOS>ATOM
      1 C1          0.0637    2.0318    2.1441 CT        1 <0>       -0.08825
      2 C2          0.6215   -0.3842    2.0571 CT        1 <0>       -0.08825
      3 C3         -1.6718    0.3637    1.4550 CT        1 <0>       -0.08825
      4 C4          1.1032    0.0321   -2.3548 CT        1 <0>       -0.09205
      5 C5         -1.2920   -0.2439   -1.7805 CT        1 <0>       -0.09205
      6 C6          0.4099   -1.7237   -0.6917 CT        1 <0>       -0.07617
      7 C7          0.3491    0.8325   -0.1103 CT        1 <0>       -0.06065
      8 C8          0.2812   -2.8365   -1.7287 CT        1 <0>        0.13017
      9 C9         -0.1884    0.7335    1.3532 CT        1 <0>       -0.04955
     10 C10         0.1274   -0.2778   -1.1884 CT        1 <0>       -0.04058
     11 O1          0.5450   -4.0811   -1.0888 OH        1 <0>       -0.60531
     12 H1         -0.4789    2.8767    1.7059 HC        1 <0>        0.03470
     13 H2          1.1293    2.2912    2.1424 HC        1 <0>        0.03470
     14 H3         -0.2327    1.9478    3.1915 HC        1 <0>        0.03470
     15 H4          0.4924   -1.3467    1.5487 HC        1 <0>        0.03470
     16 H5          0.3016   -0.5166    3.0972 HC        1 <0>        0.03470
     17 H6          1.6922   -0.1506    2.0668 HC        1 <0>        0.03470
     18 H7         -1.9007   -0.5543    0.9074 HC        1 <0>        0.03470
     19 H8         -1.9831    0.2406    2.4969 HC        1 <0>        0.03470
     20 H9         -2.3023    1.1487    1.0201 HC        1 <0>        0.03470
     21 H10         2.1440    0.0262   -2.0101 HC        1 <0>        0.03453
     22 H11         1.0231   -0.7079   -3.1580 HC        1 <0>        0.03453
     23 H12         0.9072    1.0196   -2.7879 HC        1 <0>        0.03453
     24 H13        -2.0477   -0.4545   -1.0161 HC        1 <0>        0.03453
     25 H14        -1.5200    0.7436   -2.1996 HC        1 <0>        0.03453
     26 H15        -1.4094   -0.9631   -2.5957 HC        1 <0>        0.03453
     27 H16        -0.2754   -1.9577    0.1363 HC        1 <0>        0.05781
     28 H17         1.4002   -1.7912   -0.2301 HC        1 <0>        0.05781
     29 H18         1.4302    1.0197   -0.0582 HC        1 <0>        0.03752
     30 H19        -0.0578    1.7692   -0.5218 HC        1 <0>        0.03752
     31 H20        -0.7274   -2.8810   -2.1477 H1        1 <0>        0.02151
     32 H21         1.0039   -2.7199   -2.5400 H1        1 <0>        0.02151
     33 H22         0.4564   -4.7670   -1.7691 HO        1 <0>        0.39778
@<TRIPOS>BOND
     1    1    9 1
     2    2    9 1
     3    3    9 1
     4    4   10 1
     5    5   10 1
     6    6    8 1
     7    6   10 1
     8    7    9 1
     9    7   10 1
    10    8   11 1
    11    1   12 1
    12    1   13 1
    13    1   14 1
    14    2   15 1
    15    2   16 1
    16    2   17 1
    17    3   18 1
    18    3   19 1
    19    3   20 1
    20    4   21 1
    21    4   22 1
    22    4   23 1
    23    5   24 1
    24    5   25 1
    25    5   26 1
    26    6   27 1
    27    6   28 1
    28    7   29 1
    29    7   30 1
    30    8   31 1
    31    8   32 1
    32   11   33 1
@<TRIPOS>SUBSTRUCTURE
     1 <0>         1 GROUP 0 A     ****
