@<TRIPOS>MOLECULE
AlkEthOH_c1056
   27    26     1     0     0
SMALL
USER_CHARGES

@<TRIPOS>ATOM
      1 C1          1.8320    0.2383   -2.7833 CT        1 <0>       -0.09228
      2 C2         -3.2027   -0.1786    0.4526 CT        1 <0>       -0.09228
      3 C3          0.8813    0.7813    2.1194 CT        1 <0>       -0.12492
      4 C4          1.1931   -0.4473   -1.5839 CT        1 <0>       -0.07742
      5 C5         -1.8048    0.4092    0.5817 CT        1 <0>       -0.07742
      6 C6          1.2364    0.4517   -0.3426 CT        1 <0>       -0.08277
      7 C7         -0.7691   -0.6814    0.8637 CT        1 <0>       -0.08277
      8 C8          0.6950   -0.1963    0.9516 CT        1 <0>        0.15308
      9 O1          1.5101   -1.3349    1.2653 OH        1 <0>       -0.60195
     10 H1          1.3212    1.1826   -2.9961 HC        1 <0>        0.03272
     11 H2          2.8873    0.4584   -2.5929 HC        1 <0>        0.03272
     12 H3          1.7672   -0.3915   -3.6762 HC        1 <0>        0.03272
     13 H4         -3.2419   -0.9259   -0.3464 HC        1 <0>        0.03272
     14 H5         -3.4966   -0.6657    1.3877 HC        1 <0>        0.03272
     15 H6         -3.9376    0.6018    0.2307 HC        1 <0>        0.03272
     16 H7          0.5134    0.3716    3.0647 HC        1 <0>        0.04245
     17 H8          0.3510    1.7214    1.9270 HC        1 <0>        0.04245
     18 H9          1.9378    1.0461    2.2421 HC        1 <0>        0.04245
     19 H10         1.7220   -1.3871   -1.3933 HC        1 <0>        0.04412
     20 H11         0.1584   -0.6984   -1.8386 HC        1 <0>        0.04412
     21 H12        -1.8101    1.1490    1.3888 HC        1 <0>        0.04412
     22 H13        -1.5616    0.9376   -0.3459 HC        1 <0>        0.04412
     23 H14         0.6894    1.3794   -0.5519 HC        1 <0>        0.04564
     24 H15         2.2843    0.7372   -0.1767 HC        1 <0>        0.04564
     25 H16        -1.0273   -1.1892    1.8036 HC        1 <0>        0.04564
     26 H17        -0.8497   -1.4663    0.1003 HC        1 <0>        0.04564
     27 H18         1.1727   -1.6815    2.1027 HO        1 <0>        0.39602
@<TRIPOS>BOND
     1    1    4 1
     2    2    5 1
     3    3    8 1
     4    4    6 1
     5    5    7 1
     6    6    8 1
     7    7    8 1
     8    8    9 1
     9    1   10 1
    10    1   11 1
    11    1   12 1
    12    2   13 1
    13    2   14 1
    14    2   15 1
    15    3   16 1
    16    3   17 1
    17    3   18 1
    18    4   19 1
    19    4   20 1
    20    5   21 1
    21    5   22 1
    22    6   23 1
    23    6   24 1
    24    7   25 1
    25    7   26 1
    26    9   27 1
@<TRIPOS>SUBSTRUCTURE
     1 <0>         1 GROUP 0 A     ****
