@<TRIPOS>MOLECULE
AlkEthOH_c773
   16    15     1     0     0
SMALL
USER_CHARGES

@<TRIPOS>ATOM
      1 C1         -0.4238    0.8108    0.6004 CT        1 <0>       -0.12475
      2 C2          0.1000    2.8037    2.8007 CT        1 <0>        0.11891
      3 C3         -0.8331   -0.7088    2.5635 CT        1 <0>        0.13072
      4 C4         -0.1831    0.5832    2.0850 CT        1 <0>        0.13156
      5 O1         -0.5999   -0.8539    3.9604 OH        1 <0>       -0.59665
      6 O2         -0.7516    1.6685    2.8163 OS        1 <0>       -0.41837
      7 H1         -1.4974    0.8254    0.3837 HC        1 <0>        0.04352
      8 H2          0.0100    1.7589    0.2680 HC        1 <0>        0.04352
      9 H3          0.0060   -0.0016    0.0041 HC        1 <0>        0.04352
     10 H4         -0.3627    3.6151    3.3677 H1        1 <0>        0.03227
     11 H5          0.2710    3.1179    1.7680 H1        1 <0>        0.03227
     12 H6          1.0545    2.5384    3.2615 H1        1 <0>        0.03227
     13 H7         -1.9163   -0.6903    2.4039 H1        1 <0>        0.03528
     14 H8         -0.4036   -1.5777    2.0553 H1        1 <0>        0.03528
     15 H9          0.8907    0.5686    2.3018 H1        1 <0>        0.05846
     16 H10        -1.0260   -1.6832    4.2284 HO        1 <0>        0.40219
@<TRIPOS>BOND
     1    1    4 1
     2    2    6 1
     3    3    4 1
     4    3    5 1
     5    4    6 1
     6    1    7 1
     7    1    8 1
     8    1    9 1
     9    2   10 1
    10    2   11 1
    11    2   12 1
    12    3   13 1
    13    3   14 1
    14    4   15 1
    15    5   16 1
@<TRIPOS>SUBSTRUCTURE
     1 <0>         1 GROUP 0 A     ****
