@<TRIPOS>MOLECULE
AlkEthOH_c523
   34    33     1     0     0
SMALL
USER_CHARGES

@<TRIPOS>ATOM
      1 C1          0.9955    1.3941    3.7360 CT        1 <0>       -0.10656
      2 C2         -1.3138    0.4120    3.5036 CT        1 <0>       -0.10656
      3 C3         -0.4266    1.2576   -2.5017 CT        1 <0>       -0.08789
      4 C4         -1.1201   -1.0729   -1.9644 CT        1 <0>       -0.08789
      5 C5         -1.6890    0.7775   -0.3950 CT        1 <0>       -0.08789
      6 C6          2.1662   -0.8185    1.2858 CT        1 <0>       -0.15493
      7 C7          0.7352   -0.0659   -0.6212 CT        1 <0>       -0.08141
      8 C8          0.1335    0.3523    3.0394 CT        1 <0>        0.14678
      9 C9         -0.6088    0.2518   -1.3529 CT        1 <0>       -0.04241
     10 C10         0.7201   -0.5118    0.8646 CT        1 <0>        0.35251
     11 O1         -0.0537   -1.7061    0.9610 OH        1 <0>       -0.61879
     12 O2          0.1838    0.5663    1.6369 OS        1 <0>       -0.41137
     13 H1          0.6159    2.4053    3.5608 HC        1 <0>        0.04202
     14 H2          1.0174    1.2105    4.8156 HC        1 <0>        0.04202
     15 H3          2.0332    1.3441    3.3879 HC        1 <0>        0.04202
     16 H4         -1.7486    1.3998    3.3229 HC        1 <0>        0.04202
     17 H5         -1.3801    0.1910    4.5743 HC        1 <0>        0.04202
     18 H6         -1.9240   -0.3386    2.9893 HC        1 <0>        0.04202
     19 H7         -0.0637    2.2225   -2.1309 HC        1 <0>        0.03645
     20 H8          0.3024    0.8902   -3.2338 HC        1 <0>        0.03645
     21 H9         -1.3587    1.4278   -3.0487 HC        1 <0>        0.03645
     22 H10        -1.2703   -1.8344   -1.1906 HC        1 <0>        0.03645
     23 H11        -2.0774   -0.9323   -2.4793 HC        1 <0>        0.03645
     24 H12        -0.4072   -1.4727   -2.6945 HC        1 <0>        0.03645
     25 H13        -1.8490    0.0868    0.4400 HC        1 <0>        0.03645
     26 H14        -2.6483    0.8980   -0.9120 HC        1 <0>        0.03645
     27 H15        -1.4276    1.7582    0.0142 HC        1 <0>        0.03645
     28 H16         2.2159   -1.1398    2.3315 HC        1 <0>        0.04925
     29 H17         2.8118    0.0556    1.1460 HC        1 <0>        0.04925
     30 H18         2.5997   -1.6182    0.6756 HC        1 <0>        0.04925
     31 H19         1.3656    0.8320   -0.6956 HC        1 <0>        0.04979
     32 H20         1.2409   -0.8530   -1.1993 HC        1 <0>        0.04979
     33 H21         0.5386   -0.6462    3.2336 H1        1 <0>        0.05073
     34 H22         0.3331   -2.3737    0.3704 HO        1 <0>        0.40818
@<TRIPOS>BOND
     1    1    8 1
     2    2    8 1
     3    3    9 1
     4    4    9 1
     5    5    9 1
     6    6   10 1
     7    7    9 1
     8    7   10 1
     9    8   12 1
    10   10   11 1
    11   10   12 1
    12    1   13 1
    13    1   14 1
    14    1   15 1
    15    2   16 1
    16    2   17 1
    17    2   18 1
    18    3   19 1
    19    3   20 1
    20    3   21 1
    21    4   22 1
    22    4   23 1
    23    4   24 1
    24    5   25 1
    25    5   26 1
    26    5   27 1
    27    6   28 1
    28    6   29 1
    29    6   30 1
    30    7   31 1
    31    7   32 1
    32    8   33 1
    33   11   34 1
@<TRIPOS>SUBSTRUCTURE
     1 <0>         1 GROUP 0 A     ****
