@<TRIPOS>MOLECULE
AlkEthOH_c102
   23    22     1     0     0
SMALL
USER_CHARGES

@<TRIPOS>ATOM
      1 C1         -0.9553    0.4818   -0.2077 CT        1 <0>       -0.12725
      2 C2         -0.3490    1.5118   -3.9233 CT        1 <0>       -0.11925
      3 C3          1.4631    4.5305   -1.3530 CT        1 <0>       -0.12139
      4 C4         -1.2082    0.6003   -1.7062 CT        1 <0>        0.14741
      5 C5         -0.0897    1.3641   -2.4285 CT        1 <0>        0.14894
      6 C6          1.4130    3.1289   -1.9421 CT        1 <0>        0.33265
      7 O1         -2.4504    1.2717   -1.9070 OH        1 <0>       -0.58912
      8 O2          2.3178    2.2801   -1.2423 OH        1 <0>       -0.63221
      9 O3          0.0656    2.6662   -1.8674 OS        1 <0>       -0.39589
     10 H1         -0.8584    1.4672    0.2604 HC        1 <0>        0.04789
     11 H2         -0.0508   -0.0987   -0.0023 HC        1 <0>        0.04789
     12 H3         -1.8018   -0.0117    0.2823 HC        1 <0>        0.04789
     13 H4         -1.2912    2.0347   -4.1123 HC        1 <0>        0.04531
     14 H5          0.4621    2.0550   -4.4201 HC        1 <0>        0.04531
     15 H6         -0.3970    0.5255   -4.3979 HC        1 <0>        0.04531
     16 H7          1.1525    4.5239   -0.3034 HC        1 <0>        0.05314
     17 H8          2.4832    4.9293   -1.3874 HC        1 <0>        0.05314
     18 H9          0.8225    5.2157   -1.9167 HC        1 <0>        0.05314
     19 H10        -1.2996   -0.4020   -2.1404 H1        1 <0>        0.02582
     20 H11         0.8600    0.8372   -2.2840 H1        1 <0>        0.05973
     21 H12         1.7292    3.1719   -2.9907 H2        1 <0>        0.02660
     22 H13        -3.1291    0.7293   -1.4768 HO        1 <0>        0.39688
     23 H14         3.2130    2.6468   -1.3352 HO        1 <0>        0.40806
@<TRIPOS>BOND
     1    1    4 1
     2    2    5 1
     3    3    6 1
     4    4    5 1
     5    4    7 1
     6    5    9 1
     7    6    8 1
     8    6    9 1
     9    1   10 1
    10    1   11 1
    11    1   12 1
    12    2   13 1
    13    2   14 1
    14    2   15 1
    15    3   16 1
    16    3   17 1
    17    3   18 1
    18    4   19 1
    19    5   20 1
    20    6   21 1
    21    7   22 1
    22    8   23 1
@<TRIPOS>SUBSTRUCTURE
     1 <0>         1 GROUP 0 A     ****
