@<TRIPOS>MOLECULE
AlkEthOH_c1143
   12    11     1     0     0
SMALL
USER_CHARGES

@<TRIPOS>ATOM
      1 C1         -0.0035   -0.6640    0.8700 CT        1 <0>       -0.09272
      2 C2          1.2444   -0.4434    1.7060 CT        1 <0>       -0.08607
      3 C3          1.2749   -1.3494    2.9273 CT        1 <0>        0.13304
      4 O1          2.4570   -1.0814    3.6686 OH        1 <0>       -0.60395
      5 H1         -0.0766   -1.7059    0.5423 HC        1 <0>        0.03482
      6 H2         -0.8985   -0.4284    1.4543 HC        1 <0>        0.03482
      7 H3          0.0009   -0.0237   -0.0177 HC        1 <0>        0.03482
      8 H4          1.2990    0.6047    2.0239 HC        1 <0>        0.05392
      9 H5          2.1379   -0.6194    1.0950 HC        1 <0>        0.05392
     10 H6          0.4098   -1.1652    3.5724 H1        1 <0>        0.01935
     11 H7          1.2804   -2.4035    2.6318 H1        1 <0>        0.01935
     12 H8          2.4459   -1.6736    4.4381 HO        1 <0>        0.39870
@<TRIPOS>BOND
     1    1    2 1
     2    2    3 1
     3    3    4 1
     4    1    5 1
     5    1    6 1
     6    1    7 1
     7    2    8 1
     8    2    9 1
     9    3   10 1
    10    3   11 1
    11    4   12 1
@<TRIPOS>SUBSTRUCTURE
     1 <0>         1 GROUP 0 A     ****
