@<TRIPOS>MOLECULE
AlkEthOH_c381
   24    23     1     0     0
SMALL
USER_CHARGES

@<TRIPOS>ATOM
      1 C1         -0.9758   -0.0318    1.9202 CT        1 <0>       -0.08964
      2 C2         -1.0923   -2.3023    0.8864 CT        1 <0>       -0.08964
      3 C3          0.8307    1.0989   -2.2242 CT        1 <0>       -0.12385
      4 C4          1.8012    0.9789    0.0781 CT        1 <0>       -0.12385
      5 C5         -0.2724   -0.3947   -0.5266 CT        1 <0>       -0.06221
      6 C6         -0.3273   -0.9733    0.9059 CT        1 <0>       -0.06169
      7 C7          0.5076    0.9241   -0.7347 CT        1 <0>        0.15319
      8 O1         -0.2961    2.0380   -0.3453 OH        1 <0>       -0.59860
      9 H1         -1.9992    0.2225    1.6311 HC        1 <0>        0.03471
     10 H2         -0.4222    0.9114    1.9850 HC        1 <0>        0.03471
     11 H3         -0.9980   -0.4779    2.9201 HC        1 <0>        0.03471
     12 H4         -2.1257   -2.1525    0.5561 HC        1 <0>        0.03471
     13 H5         -0.6237   -3.0119    0.1962 HC        1 <0>        0.03471
     14 H6         -1.1164   -2.7621    1.8804 HC        1 <0>        0.03471
     15 H7         -0.0738    1.0652   -2.8404 HC        1 <0>        0.04185
     16 H8          1.3376    2.0539   -2.4048 HC        1 <0>        0.04185
     17 H9          1.5159    0.3163   -2.5700 HC        1 <0>        0.04185
     18 H10         1.6082    0.8572    1.1491 HC        1 <0>        0.04185
     19 H11         2.2845    1.9574   -0.0275 HC        1 <0>        0.04185
     20 H12         2.5106    0.2091   -0.2419 HC        1 <0>        0.04185
     21 H13         0.1691   -1.1605   -1.1792 HC        1 <0>        0.05023
     22 H14        -1.3050   -0.2489   -0.8733 HC        1 <0>        0.05023
     23 H15         0.6922   -1.1945    1.2433 HC        1 <0>        0.04132
     24 H16         0.2359    2.8307   -0.5113 HO        1 <0>        0.39515
@<TRIPOS>BOND
     1    1    6 1
     2    2    6 1
     3    3    7 1
     4    4    7 1
     5    5    6 1
     6    5    7 1
     7    7    8 1
     8    1    9 1
     9    1   10 1
    10    1   11 1
    11    2   12 1
    12    2   13 1
    13    2   14 1
    14    3   15 1
    15    3   16 1
    16    3   17 1
    17    4   18 1
    18    4   19 1
    19    4   20 1
    20    5   21 1
    21    5   22 1
    22    6   23 1
    23    8   24 1
@<TRIPOS>SUBSTRUCTURE
     1 <0>         1 GROUP 0 A     ****
