@<TRIPOS>MOLECULE
AlkEthOH_c506
   36    35     1     0     0
SMALL
USER_CHARGES

@<TRIPOS>ATOM
      1 C1          2.0342   -2.8679   -2.8962 CT        1 <0>       -0.10551
      2 C2          2.4587   -3.3410   -0.4574 CT        1 <0>       -0.10551
      3 C3          0.4891    2.5296    0.4129 CT        1 <0>       -0.08617
      4 C4         -0.7588    0.8841    1.8073 CT        1 <0>       -0.08617
      5 C5          1.5520    0.3539    1.0761 CT        1 <0>       -0.08617
      6 C6         -0.9254   -1.5836   -2.1467 CT        1 <0>       -0.12084
      7 C7         -0.5294   -2.1113    0.2554 CT        1 <0>       -0.12084
      8 C8         -0.3895    0.3243   -0.6044 CT        1 <0>       -0.05843
      9 C9          1.4903   -2.7653   -1.4794 CT        1 <0>        0.13679
     10 C10         0.2416    1.0314    0.6354 CT        1 <0>       -0.04522
     11 C11        -0.1401   -1.1793   -0.8883 CT        1 <0>        0.16296
     12 O1          1.2423   -1.4029   -1.1721 OS        1 <0>       -0.42197
     13 H1          2.9916   -2.3470   -2.9927 HC        1 <0>        0.04075
     14 H2          2.1772   -3.9176   -3.1743 HC        1 <0>        0.04075
     15 H3          1.3300   -2.4441   -3.6208 HC        1 <0>        0.04075
     16 H4          3.4262   -2.8314   -0.4958 HC        1 <0>        0.04075
     17 H5          2.6178   -4.4087   -0.6425 HC        1 <0>        0.04075
     18 H6          2.0572   -3.2544    0.5583 HC        1 <0>        0.04075
     19 H7          1.1943    2.6935   -0.4104 HC        1 <0>        0.03425
     20 H8          0.9150    2.9975    1.3073 HC        1 <0>        0.03425
     21 H9         -0.4311    3.0608    0.1519 HC        1 <0>        0.03425
     22 H10        -0.9743   -0.1707    2.0126 HC        1 <0>        0.03425
     23 H11        -1.7087    1.3831    1.5835 HC        1 <0>        0.03425
     24 H12        -0.3638    1.3281    2.7283 HC        1 <0>        0.03425
     25 H13         1.4013   -0.7196    1.2418 HC        1 <0>        0.03425
     26 H14         1.9402    0.7595    2.0118 HC        1 <0>        0.03425
     27 H15         2.3303    0.4611    0.3124 HC        1 <0>        0.03425
     28 H16        -0.6717   -0.9345   -2.9928 HC        1 <0>        0.04194
     29 H17        -0.7234   -2.6213   -2.4318 HC        1 <0>        0.04194
     30 H18        -2.0044   -1.4717   -1.9884 HC        1 <0>        0.04194
     31 H19         0.0147   -1.8493    1.1712 HC        1 <0>        0.04194
     32 H20        -0.3084   -3.1569    0.0197 HC        1 <0>        0.04194
     33 H21        -1.5870   -2.0103    0.5147 HC        1 <0>        0.04194
     34 H22        -0.0320    0.8674   -1.4921 HC        1 <0>        0.04686
     35 H23        -1.4751    0.4945   -0.5726 HC        1 <0>        0.04686
     36 H24         0.5342   -3.2950   -1.4158 H1        1 <0>        0.03897
@<TRIPOS>BOND
     1    1    9 1
     2    2    9 1
     3    3   10 1
     4    4   10 1
     5    5   10 1
     6    6   11 1
     7    7   11 1
     8    8   10 1
     9    8   11 1
    10    9   12 1
    11   11   12 1
    12    1   13 1
    13    1   14 1
    14    1   15 1
    15    2   16 1
    16    2   17 1
    17    2   18 1
    18    3   19 1
    19    3   20 1
    20    3   21 1
    21    4   22 1
    22    4   23 1
    23    4   24 1
    24    5   25 1
    25    5   26 1
    26    5   27 1
    27    6   28 1
    28    6   29 1
    29    6   30 1
    30    7   31 1
    31    7   32 1
    32    7   33 1
    33    8   34 1
    34    8   35 1
    35    9   36 1
@<TRIPOS>SUBSTRUCTURE
     1 <0>         1 GROUP 0 A     ****
