@<TRIPOS>MOLECULE
AlkEthOH_c541
   30    29     1     0     0
SMALL
USER_CHARGES

@<TRIPOS>ATOM
      1 C1          4.4811    0.8575    2.0840 CT        1 <0>       -0.10642
      2 C2          3.2483   -0.6433    3.6902 CT        1 <0>       -0.10642
      3 C3          0.8630    0.5184    0.4252 CT        1 <0>       -0.11723
      4 C4         -0.1617    0.8895    4.2156 CT        1 <0>       -0.08664
      5 C5         -0.4333    2.5308    2.3520 CT        1 <0>       -0.08664
      6 C6         -1.6530    0.3565    2.2772 CT        1 <0>       -0.08664
      7 C7          3.1892    0.1064    2.3679 CT        1 <0>        0.13649
      8 C8          0.8983    0.4211    1.9487 CT        1 <0>        0.14843
      9 C9         -0.3301    1.0282    2.6910 CT        1 <0>       -0.04887
     10 O1          2.1114    1.0274    2.4011 OS        1 <0>       -0.42034
     11 H1          4.7071    1.5738    2.8798 HC        1 <0>        0.04194
     12 H2          5.3180    0.1564    1.9960 HC        1 <0>        0.04194
     13 H3          4.4224    1.3976    1.1326 HC        1 <0>        0.04194
     14 H4          3.4449    0.0372    4.5242 HC        1 <0>        0.04194
     15 H5          4.0381   -1.4016    3.6634 HC        1 <0>        0.04194
     16 H6          2.3096   -1.1737    3.8847 HC        1 <0>        0.04194
     17 H7          0.7862    1.5685    0.1206 HC        1 <0>        0.04133
     18 H8          1.7620    0.1001   -0.0344 HC        1 <0>        0.04133
     19 H9         -0.0162    0.0172    0.0086 HC        1 <0>        0.04133
     20 H10        -0.0822   -0.1587    4.5216 HC        1 <0>        0.03680
     21 H11        -1.0199    1.3158    4.7480 HC        1 <0>        0.03680
     22 H12         0.7362    1.4128    4.5628 HC        1 <0>        0.03680
     23 H13        -0.5549    2.6838    1.2738 HC        1 <0>        0.03680
     24 H14         0.4687    3.0704    2.6631 HC        1 <0>        0.03680
     25 H15        -1.2849    3.0008    2.8559 HC        1 <0>        0.03680
     26 H16        -1.8092    0.4345    1.1948 HC        1 <0>        0.03680
     27 H17        -1.6633   -0.7088    2.5300 HC        1 <0>        0.03680
     28 H18        -2.5144    0.8278    2.7612 HC        1 <0>        0.03680
     29 H19         2.9915   -0.6006    1.5555 H1        1 <0>        0.03326
     30 H20         0.9753   -0.6411    2.2122 H1        1 <0>        0.03419
@<TRIPOS>BOND
     1    1    7 1
     2    2    7 1
     3    3    8 1
     4    4    9 1
     5    5    9 1
     6    6    9 1
     7    7   10 1
     8    8    9 1
     9    8   10 1
    10    1   11 1
    11    1   12 1
    12    1   13 1
    13    2   14 1
    14    2   15 1
    15    2   16 1
    16    3   17 1
    17    3   18 1
    18    3   19 1
    19    4   20 1
    20    4   21 1
    21    4   22 1
    22    5   23 1
    23    5   24 1
    24    5   25 1
    25    6   26 1
    26    6   27 1
    27    6   28 1
    28    7   29 1
    29    8   30 1
@<TRIPOS>SUBSTRUCTURE
     1 <0>         1 GROUP 0 A     ****
