@<TRIPOS>MOLECULE
AlkEthOH_c969
   29    28     1     0     0
SMALL
USER_CHARGES

@<TRIPOS>ATOM
      1 C1          2.2878    0.8855    0.8599 CT        1 <0>       -0.09344
      2 C2          1.2697   -0.2291    3.4012 CT        1 <0>       -0.09166
      3 C3          2.8167   -3.9931    0.8281 CT        1 <0>       -0.08680
      4 C4          4.3949   -2.8876    2.4136 CT        1 <0>       -0.08680
      5 C5          2.9993   -4.8293    3.1725 CT        1 <0>       -0.08680
      6 C6          2.0277   -0.6040    1.0475 CT        1 <0>       -0.07699
      7 C7          1.8791   -2.5781    2.6744 CT        1 <0>       -0.06678
      8 C8          2.1945   -1.0695    2.5095 CT        1 <0>       -0.06432
      9 C9          3.0190   -3.5676    2.2970 CT        1 <0>       -0.05264
     10 H1          1.6452    1.4972    1.4986 HC        1 <0>        0.03216
     11 H2          3.3266    1.1186    1.1151 HC        1 <0>        0.03216
     12 H3          2.1215    1.1830   -0.1803 HC        1 <0>        0.03216
     13 H4          0.2165   -0.3970    3.1504 HC        1 <0>        0.03305
     14 H5          1.4068   -0.4674    4.4595 HC        1 <0>        0.03305
     15 H6          1.4779    0.8391    3.2759 HC        1 <0>        0.03305
     16 H7          1.8475   -4.4851    0.6880 HC        1 <0>        0.03372
     17 H8          2.8502   -3.1288    0.1551 HC        1 <0>        0.03372
     18 H9          3.5965   -4.6933    0.5079 HC        1 <0>        0.03372
     19 H10         4.5896   -2.5643    3.4423 HC        1 <0>        0.03372
     20 H11         5.2094   -3.5533    2.1125 HC        1 <0>        0.03372
     21 H12         4.4501   -2.0000    1.7725 HC        1 <0>        0.03372
     22 H13         3.1398   -4.5783    4.2296 HC        1 <0>        0.03372
     23 H14         3.7827   -5.5373    2.8837 HC        1 <0>        0.03372
     24 H15         2.0417   -5.3554    3.0831 HC        1 <0>        0.03372
     25 H16         2.6922   -1.1771    0.3896 HC        1 <0>        0.03959
     26 H17         1.0020   -0.8076    0.7151 HC        1 <0>        0.03959
     27 H18         0.9986   -2.8435    2.0762 HC        1 <0>        0.03908
     28 H19         1.5776   -2.7681    3.7140 HC        1 <0>        0.03908
     29 H20         3.2247   -0.8546    2.8118 HC        1 <0>        0.04978
@<TRIPOS>BOND
     1    1    6 1
     2    2    8 1
     3    3    9 1
     4    4    9 1
     5    5    9 1
     6    6    8 1
     7    7    8 1
     8    7    9 1
     9    1   10 1
    10    1   11 1
    11    1   12 1
    12    2   13 1
    13    2   14 1
    14    2   15 1
    15    3   16 1
    16    3   17 1
    17    3   18 1
    18    4   19 1
    19    4   20 1
    20    4   21 1
    21    5   22 1
    22    5   23 1
    23    5   24 1
    24    6   25 1
    25    6   26 1
    26    7   27 1
    27    7   28 1
    28    8   29 1
@<TRIPOS>SUBSTRUCTURE
     1 <0>         1 GROUP 0 A     ****
