@<TRIPOS>MOLECULE
AlkEthOH_c22
   13    12     1     0     0
SMALL
USER_CHARGES

@<TRIPOS>ATOM
      1 C1          0.7769   -0.0127   -0.7752 CT        1 <0>       -0.09140
      2 C2          0.3977    0.9315   -1.9041 CT        1 <0>        0.13407
      3 C3          0.9970   -1.4335   -1.2704 CT        1 <0>        0.13407
      4 O1          0.2231    2.2373   -1.3719 OH        1 <0>       -0.59717
      5 O2          1.3667   -2.2713   -0.1834 OH        1 <0>       -0.59717
      6 H1          1.6790    0.3515   -0.2672 HC        1 <0>        0.07013
      7 H2          0.0000    0.0000    0.0000 HC        1 <0>        0.07013
      8 H3          1.1846    0.9677   -2.6642 H1        1 <0>        0.01938
      9 H4         -0.5395    0.6195   -2.3760 H1        1 <0>        0.01938
     10 H5          1.8020   -1.4678   -2.0110 H1        1 <0>        0.01938
     11 H6          0.0904   -1.8407   -1.7295 H1        1 <0>        0.01938
     12 H7         -0.0175    2.8135   -2.1155 HO        1 <0>        0.39991
     13 H8          1.4954   -3.1621   -0.5474 HO        1 <0>        0.39991
@<TRIPOS>BOND
     1    1    2 1
     2    1    3 1
     3    2    4 1
     4    3    5 1
     5    1    6 1
     6    1    7 1
     7    2    8 1
     8    2    9 1
     9    3   10 1
    10    3   11 1
    11    4   12 1
    12    5   13 1
@<TRIPOS>SUBSTRUCTURE
     1 <0>         1 GROUP 0 A     ****
