@<TRIPOS>MOLECULE
AlkEthOH_c113
   17    16     1     0     0
SMALL
USER_CHARGES

@<TRIPOS>ATOM
      1 C1          1.0581   -0.5430    0.1916 CT        1 <0>       -0.13039
      2 C2          2.2066   -0.6084   -2.7222 CT        1 <0>        0.11122
      3 C3          2.1026    0.4139   -0.3646 CT        1 <0>        0.10435
      4 C4          1.9631    0.6399   -1.8772 CT        1 <0>        0.10937
      5 O1          2.0181   -0.2761   -4.0952 OH        1 <0>       -0.59617
      6 O2          3.3918   -0.1145   -0.0580 OH        1 <0>       -0.60829
      7 O3          2.9316    1.6163   -2.2771 OH        1 <0>       -0.60334
      8 H1          1.1231   -1.5096   -0.3203 HC        1 <0>        0.04907
      9 H2          1.2013   -0.7098    1.2633 HC        1 <0>        0.04907
     10 H3          0.0412   -0.1756    0.0215 HC        1 <0>        0.04907
     11 H4          1.5030   -1.4074   -2.4749 H1        1 <0>        0.05466
     12 H5          3.2320   -0.9747   -2.6085 H1        1 <0>        0.05466
     13 H6          2.0197    1.3726    0.1608 H1        1 <0>        0.04457
     14 H7          0.9789    1.0628   -2.1106 H1        1 <0>        0.08458
     15 H8          2.1798   -1.0879   -4.6006 HO        1 <0>        0.40749
     16 H9          3.4413   -0.1750    0.9082 HO        1 <0>        0.40838
     17 H10         2.7644    2.3995   -1.7337 HO        1 <0>        0.41170
@<TRIPOS>BOND
     1    1    3 1
     2    2    4 1
     3    2    5 1
     4    3    4 1
     5    3    6 1
     6    4    7 1
     7    1    8 1
     8    1    9 1
     9    1   10 1
    10    2   11 1
    11    2   12 1
    12    3   13 1
    13    4   14 1
    14    5   15 1
    15    6   16 1
    16    7   17 1
@<TRIPOS>SUBSTRUCTURE
     1 <0>         1 GROUP 0 A     ****
