@<TRIPOS>MOLECULE
AlkEthOH_c843
   24    23     1     0     0
SMALL
USER_CHARGES

@<TRIPOS>ATOM
      1 C1          2.3238    1.1310   -1.5528 CT        1 <0>       -0.12841
      2 C2         -1.4545   -1.4667   -0.4624 CT        1 <0>       -0.10568
      3 C3          0.4220   -1.6778    1.1429 CT        1 <0>       -0.10568
      4 C4         -1.7637    1.2752    0.5978 CT        1 <0>        0.33822
      5 C5          1.5778    0.6847   -0.3040 CT        1 <0>        0.34306
      6 C6         -0.3616   -0.6821    0.2763 CT        1 <0>        0.35329
      7 O1         -3.1094    0.8440    0.4529 OH        1 <0>       -0.63595
      8 O2          1.1918    1.8598    0.3973 OH        1 <0>       -0.61910
      9 O3         -0.9291    0.2789    1.1784 OS        1 <0>       -0.41665
     10 O4          0.4724   -0.1047   -0.7412 OS        1 <0>       -0.44699
     11 H1          1.6764    1.7247   -2.2061 HC        1 <0>        0.05218
     12 H2          2.6644    0.2636   -2.1297 HC        1 <0>        0.05218
     13 H3          3.2096    1.7184   -1.2912 HC        1 <0>        0.05218
     14 H4         -2.0518   -0.8073   -1.1014 HC        1 <0>        0.05382
     15 H5         -2.1347   -1.9647    0.2362 HC        1 <0>        0.05382
     16 H6         -1.0160   -2.2168   -1.1306 HC        1 <0>        0.05382
     17 H7          1.2217   -1.1766    1.6993 HC        1 <0>        0.05382
     18 H8          0.8790   -2.4661    0.5356 HC        1 <0>        0.05382
     19 H9         -0.2266   -2.1373    1.8976 HC        1 <0>        0.05382
     20 H10        -1.3777    1.6453   -0.3586 H2        1 <0>        0.05041
     21 H11        -1.7784    2.1197    1.2928 H2        1 <0>        0.05041
     22 H12         2.2656    0.0975    0.3128 H2        1 <0>        0.03528
     23 H13        -3.6114    1.5733    0.0532 HO        1 <0>        0.40313
     24 H14         2.0068    2.3416    0.6184 HO        1 <0>        0.40520
@<TRIPOS>BOND
     1    1    5 1
     2    2    6 1
     3    3    6 1
     4    4    7 1
     5    4    9 1
     6    5    8 1
     7    5   10 1
     8    6    9 1
     9    6   10 1
    10    1   11 1
    11    1   12 1
    12    1   13 1
    13    2   14 1
    14    2   15 1
    15    2   16 1
    16    3   17 1
    17    3   18 1
    18    3   19 1
    19    4   20 1
    20    4   21 1
    21    5   22 1
    22    7   23 1
    23    8   24 1
@<TRIPOS>SUBSTRUCTURE
     1 <0>         1 GROUP 0 A     ****
