@<TRIPOS>MOLECULE
AlkEthOH_c1127
   29    28     1     0     0
SMALL
USER_CHARGES

@<TRIPOS>ATOM
      1 C1         -2.2297    0.6250    3.7551 CT        1 <0>       -0.09132
      2 C2          1.3628   -1.7355   -2.4407 CT        1 <0>       -0.08609
      3 C3          2.2874    0.3551   -1.4323 CT        1 <0>       -0.08609
      4 C4          0.0994    0.4090   -2.6553 CT        1 <0>       -0.08609
      5 C5         -1.4934    1.0983    2.5120 CT        1 <0>       -0.07997
      6 C6         -1.0219   -0.0786    1.6582 CT        1 <0>       -0.07839
      7 C7         -0.2515    0.4014    0.4243 CT        1 <0>       -0.07734
      8 C8          0.2502   -0.7858   -0.4075 CT        1 <0>       -0.06849
      9 C9          0.9932   -0.4233   -1.7212 CT        1 <0>       -0.05381
     10 H1         -3.0965    0.0119    3.4881 HC        1 <0>        0.03271
     11 H2         -2.5857    1.4829    4.3341 HC        1 <0>        0.03271
     12 H3         -1.5726    0.0303    4.3979 HC        1 <0>        0.03271
     13 H4          0.4703   -2.3289   -2.6695 HC        1 <0>        0.03360
     14 H5          1.8804   -1.5364   -3.3859 HC        1 <0>        0.03360
     15 H6          2.0226   -2.3539   -1.8216 HC        1 <0>        0.03360
     16 H7          2.0869    1.3014   -0.9195 HC        1 <0>        0.03360
     17 H8          2.8160    0.5982   -2.3613 HC        1 <0>        0.03360
     18 H9          2.9692   -0.2308   -0.8061 HC        1 <0>        0.03360
     19 H10        -0.1966    1.3577   -2.1959 HC        1 <0>        0.03360
     20 H11        -0.8128   -0.1374   -2.9194 HC        1 <0>        0.03360
     21 H12         0.6225    0.6519   -3.5874 HC        1 <0>        0.03360
     22 H13        -0.6336    1.7075    2.8135 HC        1 <0>        0.03710
     23 H14        -2.1575    1.7425    1.9242 HC        1 <0>        0.03710
     24 H15        -1.8878   -0.6733    1.3425 HC        1 <0>        0.03798
     25 H16        -0.3809   -0.7345    2.2596 HC        1 <0>        0.03798
     26 H17        -0.9088    1.0355   -0.1802 HC        1 <0>        0.04026
     27 H18         0.5925    1.0184    0.7504 HC        1 <0>        0.04026
     28 H19         0.9157   -1.3934    0.2208 HC        1 <0>        0.03819
     29 H20        -0.6079   -1.4272   -0.6502 HC        1 <0>        0.03819
@<TRIPOS>BOND
     1    1    5 1
     2    2    9 1
     3    3    9 1
     4    4    9 1
     5    5    6 1
     6    6    7 1
     7    7    8 1
     8    8    9 1
     9    1   10 1
    10    1   11 1
    11    1   12 1
    12    2   13 1
    13    2   14 1
    14    2   15 1
    15    3   16 1
    16    3   17 1
    17    3   18 1
    18    4   19 1
    19    4   20 1
    20    4   21 1
    21    5   22 1
    22    5   23 1
    23    6   24 1
    24    6   25 1
    25    7   26 1
    26    7   27 1
    27    8   28 1
    28    8   29 1
@<TRIPOS>SUBSTRUCTURE
     1 <0>         1 GROUP 0 A     ****
