@<TRIPOS>MOLECULE
AlkEthOH_c359
   33    32     1     0     0
SMALL
USER_CHARGES

@<TRIPOS>ATOM
      1 C1         -2.1924    1.9516   -0.3060 CT        1 <0>       -0.09270
      2 C2         -0.2146    3.4487   -0.5788 CT        1 <0>       -0.09270
      3 C3          1.4241   -1.8682   -1.1025 CT        1 <0>       -0.08888
      4 C4          0.5458   -2.8108    1.0171 CT        1 <0>       -0.08888
      5 C5          2.1316   -0.8868    1.0798 CT        1 <0>       -0.08888
      6 C6         -1.4998   -1.0848   -0.5054 CT        1 <0>       -0.09186
      7 C7          0.0885    0.8975   -0.3769 CT        1 <0>       -0.10224
      8 C8         -0.7145    2.1507    0.0553 CT        1 <0>       -0.05915
      9 C9          0.9306   -1.4855    0.3156 CT        1 <0>       -0.07720
     10 C10        -0.3010   -0.4791    0.2461 CT        1 <0>        0.16665
     11 O1         -0.7593   -0.2498    1.5872 OH        1 <0>       -0.59639
     12 H1         -2.3176    1.8399   -1.3882 HC        1 <0>        0.03491
     13 H2         -2.5913    1.0484    0.1683 HC        1 <0>        0.03491
     14 H3         -2.7998    2.8026    0.0207 HC        1 <0>        0.03491
     15 H4         -0.2476    3.3853   -1.6720 HC        1 <0>        0.03491
     16 H5         -0.8379    4.3004   -0.2941 HC        1 <0>        0.03491
     17 H6          0.8188    3.6622   -0.2859 HC        1 <0>        0.03491
     18 H7          1.7226   -0.9914   -1.6842 HC        1 <0>        0.03676
     19 H8          2.3026   -2.5226   -1.0487 HC        1 <0>        0.03676
     20 H9          0.6561   -2.4068   -1.6674 HC        1 <0>        0.03676
     21 H10         0.1830   -2.6255    2.0355 HC        1 <0>        0.03676
     22 H11        -0.2595   -3.3314    0.4891 HC        1 <0>        0.03676
     23 H12         1.3993   -3.4911    1.0986 HC        1 <0>        0.03676
     24 H13         1.8413   -0.5954    2.0965 HC        1 <0>        0.03676
     25 H14         2.5234    0.0101    0.5916 HC        1 <0>        0.03676
     26 H15         2.9505   -1.6064    1.1782 HC        1 <0>        0.03676
     27 H16        -1.7956   -2.0523   -0.0895 HC        1 <0>        0.04560
     28 H17        -2.3920   -0.4571   -0.4046 HC        1 <0>        0.04560
     29 H18        -1.2922   -1.2126   -1.5720 HC        1 <0>        0.04560
     30 H19         0.0074    0.8250   -1.4674 HC        1 <0>        0.04511
     31 H20         1.1421    1.1046   -0.1502 HC        1 <0>        0.04511
     32 H21        -0.6658    2.2545    1.1453 HC        1 <0>        0.04682
     33 H22        -0.0088    0.1310    2.0631 HO        1 <0>        0.39809
@<TRIPOS>BOND
     1    1    8 1
     2    2    8 1
     3    3    9 1
     4    4    9 1
     5    5    9 1
     6    6   10 1
     7    7    8 1
     8    7   10 1
     9    9   10 1
    10   10   11 1
    11    1   12 1
    12    1   13 1
    13    1   14 1
    14    2   15 1
    15    2   16 1
    16    2   17 1
    17    3   18 1
    18    3   19 1
    19    3   20 1
    20    4   21 1
    21    4   22 1
    22    4   23 1
    23    5   24 1
    24    5   25 1
    25    5   26 1
    26    6   27 1
    27    6   28 1
    28    6   29 1
    29    7   30 1
    30    7   31 1
    31    8   32 1
    32   11   33 1
@<TRIPOS>SUBSTRUCTURE
     1 <0>         1 GROUP 0 A     ****
