@<TRIPOS>MOLECULE
AlkEthOH_c63
   25    24     1     0     0
SMALL
USER_CHARGES

@<TRIPOS>ATOM
      1 C1         -0.1590    2.1112   -0.1202 CT        1 <0>       -0.12678
      2 C2         -0.9017   -0.4595    1.4330 CT        1 <0>       -0.08628
      3 C3          1.0183   -1.6056    0.3269 CT        1 <0>       -0.08628
      4 C4         -0.9943   -1.1039   -3.3773 CT        1 <0>        0.11600
      5 C5         -0.9271   -0.8027   -1.0476 CT        1 <0>        0.12801
      6 C6          0.7331    0.8754   -0.0268 CT        1 <0>        0.14728
      7 C7         -0.0251   -0.4752    0.1645 CT        1 <0>       -0.03948
      8 O1          1.6416    1.0718    1.0604 OH        1 <0>       -0.60500
      9 O2         -0.1707   -0.8355   -2.2508 OS        1 <0>       -0.42145
     10 H1         -0.7819    2.1934    0.7780 HC        1 <0>        0.04170
     11 H2         -0.8526    2.0435   -0.9640 HC        1 <0>        0.04170
     12 H3          0.4217    3.0328   -0.2080 HC        1 <0>        0.04170
     13 H4         -1.6675    0.3222    1.3859 HC        1 <0>        0.04167
     14 H5         -1.4080   -1.4183    1.5849 HC        1 <0>        0.04167
     15 H6         -0.2949   -0.2696    2.3261 HC        1 <0>        0.04167
     16 H7          1.6768   -1.6702   -0.5465 HC        1 <0>        0.04167
     17 H8          1.6498   -1.4476    1.2081 HC        1 <0>        0.04167
     18 H9          0.5297   -2.5793    0.4469 HC        1 <0>        0.04167
     19 H10        -0.3814   -1.1217   -4.2818 H1        1 <0>        0.03233
     20 H11        -1.7628   -0.3312   -3.4602 H1        1 <0>        0.03233
     21 H12        -1.4721   -2.0774   -3.2445 H1        1 <0>        0.03233
     22 H13        -1.4038   -1.7818   -0.9215 H1        1 <0>        0.02813
     23 H14        -1.7246   -0.0613   -1.1630 H1        1 <0>        0.02813
     24 H15         1.3424    0.8209   -0.9374 H1        1 <0>        0.04885
     25 H16         2.1508    1.8675    0.8477 HO        1 <0>        0.39676
@<TRIPOS>BOND
     1    1    6 1
     2    2    7 1
     3    3    7 1
     4    4    9 1
     5    5    7 1
     6    5    9 1
     7    6    7 1
     8    6    8 1
     9    1   10 1
    10    1   11 1
    11    1   12 1
    12    2   13 1
    13    2   14 1
    14    2   15 1
    15    3   16 1
    16    3   17 1
    17    3   18 1
    18    4   19 1
    19    4   20 1
    20    4   21 1
    21    5   22 1
    22    5   23 1
    23    6   24 1
    24    8   25 1
@<TRIPOS>SUBSTRUCTURE
     1 <0>         1 GROUP 0 A     ****
