@<TRIPOS>MOLECULE
AlkEthOH_c996
   16    15     1     0     0
SMALL
USER_CHARGES

@<TRIPOS>ATOM
      1 C1         -0.4355   -0.0407    1.1188 CT        1 <0>       -0.08859
      2 C2          0.7385   -0.4820    1.9831 CT        1 <0>       -0.11242
      3 C3          3.0032    0.1109    2.9192 CT        1 <0>        0.09508
      4 C4          1.8709    0.5466    1.9931 CT        1 <0>        0.13694
      5 O1          4.0246    1.1028    2.9338 OH        1 <0>       -0.58491
      6 O2          1.3552    1.7945    2.4561 OH        1 <0>       -0.57772
      7 H1         -0.1258    0.1343    0.0837 HC        1 <0>        0.03962
      8 H2         -1.2272   -0.7966    1.1185 HC        1 <0>        0.03962
      9 H3         -0.8578    0.8922    1.5055 HC        1 <0>        0.03962
     10 H4          0.3705   -0.6417    3.0039 HC        1 <0>        0.04090
     11 H5          1.1113   -1.4431    1.6105 HC        1 <0>        0.04090
     12 H6          2.6481   -0.0049    3.9482 H1        1 <0>        0.02460
     13 H7          3.4512   -0.8325    2.5918 H1        1 <0>        0.02460
     14 H8          2.2496    0.7063    0.9770 H1        1 <0>        0.09037
     15 H9          4.7162    0.7802    3.5328 HO        1 <0>        0.39793
     16 H10         1.0161    1.6362    3.3500 HO        1 <0>        0.39346
@<TRIPOS>BOND
     1    1    2 1
     2    2    4 1
     3    3    4 1
     4    3    5 1
     5    4    6 1
     6    1    7 1
     7    1    8 1
     8    1    9 1
     9    2   10 1
    10    2   11 1
    11    3   12 1
    12    3   13 1
    13    4   14 1
    14    5   15 1
    15    6   16 1
@<TRIPOS>SUBSTRUCTURE
     1 <0>         1 GROUP 0 A     ****
