@<TRIPOS>MOLECULE
AlkEthOH_c618
   31    30     1     0     0
SMALL
USER_CHARGES

@<TRIPOS>ATOM
      1 C1          0.2235    1.3141    2.8625 CT        1 <0>       -0.13104
      2 C2          2.7525   -1.3473   -1.2128 CT        1 <0>       -0.13104
      3 C3         -1.6191    1.0940   -1.3949 CT        1 <0>       -0.08724
      4 C4         -1.8164   -1.3183   -0.8551 CT        1 <0>       -0.08724
      5 C5         -0.9415    0.2241    0.9127 CT        1 <0>       -0.06679
      6 C6          0.4820   -0.2552   -1.2131 CT        1 <0>       -0.06679
      7 C7         -0.1574    1.4557    1.3922 CT        1 <0>        0.14048
      8 C8          1.3743   -1.3219   -0.5590 CT        1 <0>        0.14048
      9 C9         -0.9478   -0.0621   -0.6206 CT        1 <0>       -0.04118
     10 O1         -0.9598    2.6228    1.2550 OH        1 <0>       -0.59935
     11 O2          0.7868   -2.6082   -0.7179 OH        1 <0>       -0.59935
     12 H1         -0.6662    1.1735    3.4862 HC        1 <0>        0.04159
     13 H2          0.7174    2.2241    3.2201 HC        1 <0>        0.04159
     14 H3          0.9006    0.4688    3.0188 HC        1 <0>        0.04159
     15 H4          2.6724   -1.5384   -2.2887 HC        1 <0>        0.04159
     16 H5          3.2829   -0.4023   -1.0611 HC        1 <0>        0.04159
     17 H6          3.3604   -2.1569   -0.7944 HC        1 <0>        0.04159
     18 H7         -1.0542    2.0260   -1.2744 HC        1 <0>        0.03811
     19 H8         -2.6343    1.2912   -1.0373 HC        1 <0>        0.03811
     20 H9         -1.6726    0.8770   -2.4677 HC        1 <0>        0.03811
     21 H10        -1.4046   -2.1902   -0.3348 HC        1 <0>        0.03811
     22 H11        -2.8460   -1.1742   -0.5138 HC        1 <0>        0.03811
     23 H12        -1.8677   -1.5648   -1.9223 HC        1 <0>        0.03811
     24 H13        -1.9849    0.3298    1.2425 HC        1 <0>        0.05068
     25 H14        -0.5500   -0.6611    1.4304 HC        1 <0>        0.05068
     26 H15         0.3770   -0.5004   -2.2797 HC        1 <0>        0.05068
     27 H16         1.0076    0.7078   -1.1757 HC        1 <0>        0.05068
     28 H17         0.7539    1.5939    0.8031 H1        1 <0>        0.02917
     29 H18         1.4948   -1.1293    0.5110 H1        1 <0>        0.02917
     30 H19        -0.4184    3.3698    1.5557 HO        1 <0>        0.39490
     31 H20         1.3773   -3.2403   -0.2782 HO        1 <0>        0.39490
@<TRIPOS>BOND
     1    1    7 1
     2    2    8 1
     3    3    9 1
     4    4    9 1
     5    5    7 1
     6    5    9 1
     7    6    8 1
     8    6    9 1
     9    7   10 1
    10    8   11 1
    11    1   12 1
    12    1   13 1
    13    1   14 1
    14    2   15 1
    15    2   16 1
    16    2   17 1
    17    3   18 1
    18    3   19 1
    19    3   20 1
    20    4   21 1
    21    4   22 1
    22    4   23 1
    23    5   24 1
    24    5   25 1
    25    6   26 1
    26    6   27 1
    27    7   28 1
    28    8   29 1
    29   10   30 1
    30   11   31 1
@<TRIPOS>SUBSTRUCTURE
     1 <0>         1 GROUP 0 A     ****
