@<TRIPOS>MOLECULE
AlkEthOH_c1042
   31    30     1     0     0
SMALL
USER_CHARGES

@<TRIPOS>ATOM
      1 C1          1.4477   -1.9155    1.0786 CT        1 <0>       -0.09319
      2 C2         -0.2913   -4.8812   -1.5864 CT        1 <0>       -0.10125
      3 C3          1.3843   -3.8070   -3.1121 CT        1 <0>       -0.10125
      4 C4         -1.6549   -0.7797   -3.3845 CT        1 <0>       -0.13211
      5 C5         -0.7820   -2.2052   -5.2391 CT        1 <0>       -0.13211
      6 C6          1.1662   -3.0326    0.0842 CT        1 <0>       -0.07646
      7 C7          0.4071   -2.5093   -1.1412 CT        1 <0>       -0.10288
      8 C8          0.1536   -3.5662   -2.2352 CT        1 <0>        0.18754
      9 C9         -0.6531   -1.8770   -3.7511 CT        1 <0>        0.36220
     10 O1          0.6830   -1.4124   -3.5568 OH        1 <0>       -0.62173
     11 O2         -0.9126   -3.1052   -3.0679 OS        1 <0>       -0.43835
     12 H1          0.5183   -1.4394    1.4075 HC        1 <0>        0.03136
     13 H2          2.0900   -1.1481    0.6352 HC        1 <0>        0.03136
     14 H3          1.9562   -2.3142    1.9620 HC        1 <0>        0.03136
     15 H4         -1.1729   -4.7282   -0.9535 HC        1 <0>        0.04375
     16 H5          0.4928   -5.2770   -0.9306 HC        1 <0>        0.04375
     17 H6         -0.5326   -5.6399   -2.3379 HC        1 <0>        0.04375
     18 H7          1.7236   -2.8815   -3.5887 HC        1 <0>        0.04375
     19 H8          1.1480   -4.4953   -3.9323 HC        1 <0>        0.04375
     20 H9          2.2119   -4.2324   -2.5357 HC        1 <0>        0.04375
     21 H10        -1.5861   -0.5224   -2.3218 HC        1 <0>        0.04824
     22 H11        -1.4943    0.1220   -3.9844 HC        1 <0>        0.04824
     23 H12        -2.6854   -1.1097   -3.5539 HC        1 <0>        0.04824
     24 H13        -0.0707   -2.9909   -5.5207 HC        1 <0>        0.04824
     25 H14        -0.5608   -1.3325   -5.8630 HC        1 <0>        0.04824
     26 H15        -1.7841   -2.5753   -5.4813 HC        1 <0>        0.04824
     27 H16         2.1167   -3.4837   -0.2211 HC        1 <0>        0.03940
     28 H17         0.5820   -3.8086    0.5900 HC        1 <0>        0.03940
     29 H18        -0.5483   -2.0783   -0.8159 HC        1 <0>        0.05659
     30 H19         0.9966   -1.6902   -1.5747 HC        1 <0>        0.05659
     31 H20         0.8221   -0.6382   -4.1276 HO        1 <0>        0.41159
@<TRIPOS>BOND
     1    1    6 1
     2    2    8 1
     3    3    8 1
     4    4    9 1
     5    5    9 1
     6    6    7 1
     7    7    8 1
     8    8   11 1
     9    9   10 1
    10    9   11 1
    11    1   12 1
    12    1   13 1
    13    1   14 1
    14    2   15 1
    15    2   16 1
    16    2   17 1
    17    3   18 1
    18    3   19 1
    19    3   20 1
    20    4   21 1
    21    4   22 1
    22    4   23 1
    23    5   24 1
    24    5   25 1
    25    5   26 1
    26    6   27 1
    27    6   28 1
    28    7   29 1
    29    7   30 1
    30   10   31 1
@<TRIPOS>SUBSTRUCTURE
     1 <0>         1 GROUP 0 A     ****
