@<TRIPOS>MOLECULE
AlkEthOH_c427
   31    30     1     0     0
SMALL
USER_CHARGES

@<TRIPOS>ATOM
      1 C1         -1.0433    0.2797   -0.2505 CT        1 <0>       -0.09112
      2 C2         -2.7747    0.8787   -1.9554 CT        1 <0>       -0.09112
      3 C3          1.5242   -0.0271   -2.9022 CT        1 <0>       -0.10127
      4 C4          1.9338    3.8185   -0.9848 CT        1 <0>       -0.13074
      5 C5          3.2267    4.2063   -3.0851 CT        1 <0>       -0.13074
      6 C6         -0.3932    1.5685   -2.3523 CT        1 <0>       -0.09204
      7 C7         -1.3085    0.4923   -1.7411 CT        1 <0>       -0.06521
      8 C8          1.1132    1.2947   -2.2678 CT        1 <0>        0.15227
      9 C9          2.6580    3.1390   -2.1491 CT        1 <0>        0.34748
     10 O1          3.7749    2.3907   -1.6681 OH        1 <0>       -0.62366
     11 O2          1.7784    2.3548   -2.9577 OS        1 <0>       -0.41747
     12 H1         -1.1958    1.2047    0.3157 HC        1 <0>        0.03338
     13 H2         -0.0200   -0.0647   -0.0734 HC        1 <0>        0.03338
     14 H3         -1.7163   -0.4817    0.1588 HC        1 <0>        0.03338
     15 H4         -3.0042    1.8269   -1.4577 HC        1 <0>        0.03338
     16 H5         -2.9926    1.0015   -3.0217 HC        1 <0>        0.03338
     17 H6         -3.4505    0.1139   -1.5574 HC        1 <0>        0.03338
     18 H7          1.1957   -0.0787   -3.9459 HC        1 <0>        0.04430
     19 H8          2.6154   -0.1234   -2.9127 HC        1 <0>        0.04430
     20 H9          1.1137   -0.8837   -2.3607 HC        1 <0>        0.04430
     21 H10         1.5145    3.0776   -0.2953 HC        1 <0>        0.05078
     22 H11         2.6052    4.4845   -0.4330 HC        1 <0>        0.05078
     23 H12         1.0897    4.4201   -1.3387 HC        1 <0>        0.05078
     24 H13         3.7502    3.7374   -3.9270 HC        1 <0>        0.05078
     25 H14         3.9526    4.8453   -2.5708 HC        1 <0>        0.05078
     26 H15         2.4327    4.8318   -3.5070 HC        1 <0>        0.05078
     27 H16        -0.5949    2.5365   -1.8727 HC        1 <0>        0.04748
     28 H17        -0.6643    1.7160   -3.4070 HC        1 <0>        0.04748
     29 H18        -1.1426   -0.4591   -2.2600 HC        1 <0>        0.04907
     30 H19         1.4485    1.3303   -1.2263 H1        1 <0>        0.05367
     31 H20         4.3808    3.0031   -1.2183 HO        1 <0>        0.40806
@<TRIPOS>BOND
     1    1    7 1
     2    2    7 1
     3    3    8 1
     4    4    9 1
     5    5    9 1
     6    6    7 1
     7    6    8 1
     8    8   11 1
     9    9   10 1
    10    9   11 1
    11    1   12 1
    12    1   13 1
    13    1   14 1
    14    2   15 1
    15    2   16 1
    16    2   17 1
    17    3   18 1
    18    3   19 1
    19    3   20 1
    20    4   21 1
    21    4   22 1
    22    4   23 1
    23    5   24 1
    24    5   25 1
    25    5   26 1
    26    6   27 1
    27    6   28 1
    28    7   29 1
    29    8   30 1
    30   10   31 1
@<TRIPOS>SUBSTRUCTURE
     1 <0>         1 GROUP 0 A     ****
