@<TRIPOS>MOLECULE
AlkEthOH_c526
   29    28     1     0     0
SMALL
USER_CHARGES

@<TRIPOS>ATOM
      1 C1          1.5756    3.4301   -0.9458 CT        1 <0>       -0.10512
      2 C2          2.5783    1.3526   -1.9609 CT        1 <0>       -0.10512
      3 C3          0.3227   -2.6761    1.5492 CT        1 <0>       -0.12501
      4 C4         -1.5188    1.6972   -0.0951 CT        1 <0>       -0.13009
      5 C5         -0.5131   -0.4640    0.6697 CT        1 <0>       -0.10282
      6 C6          1.3266    1.9943   -1.3820 CT        1 <0>        0.15300
      7 C7          0.5128   -1.5972    0.4891 CT        1 <0>        0.14151
      8 C8         -0.4228    0.6641   -0.3872 CT        1 <0>        0.36049
      9 O1          0.3523   -2.1924   -0.7943 OH        1 <0>       -0.61727
     10 O2         -0.6497    0.0801   -1.6704 OH        1 <0>       -0.63237
     11 O3          0.8865    1.2362   -0.2650 OS        1 <0>       -0.44348
     12 H1          2.3722    3.4854   -0.1977 HC        1 <0>        0.03919
     13 H2          1.8597    4.0458   -1.8060 HC        1 <0>        0.03919
     14 H3          0.6682    3.8776   -0.5253 HC        1 <0>        0.03919
     15 H4          3.3989    1.3585   -1.2370 HC        1 <0>        0.03919
     16 H5          2.9007    1.8891   -2.8598 HC        1 <0>        0.03919
     17 H6          2.3863    0.3176   -2.2644 HC        1 <0>        0.03919
     18 H7         -0.6921   -3.0856    1.5016 HC        1 <0>        0.04275
     19 H8          0.4478   -2.2624    2.5559 HC        1 <0>        0.04275
     20 H9          1.0342   -3.4964    1.4146 HC        1 <0>        0.04275
     21 H10        -1.4961    2.5189   -0.8189 HC        1 <0>        0.04758
     22 H11        -2.5148    1.2473   -0.1737 HC        1 <0>        0.04758
     23 H12        -1.3981    2.1338    0.9018 HC        1 <0>        0.04758
     24 H13        -0.3674   -0.0273    1.6663 HC        1 <0>        0.06414
     25 H14        -1.5205   -0.8999    0.6311 HC        1 <0>        0.06414
     26 H15         0.5261    1.9729   -2.1288 H1        1 <0>        0.06683
     27 H16         1.5325   -1.2028    0.5552 H1        1 <0>        0.05977
     28 H17         1.0306   -2.8822   -0.8672 HO        1 <0>        0.40786
     29 H18        -1.5200   -0.3521   -1.6614 HO        1 <0>        0.43741
@<TRIPOS>BOND
     1    1    6 1
     2    2    6 1
     3    3    7 1
     4    4    8 1
     5    5    7 1
     6    5    8 1
     7    6   11 1
     8    7    9 1
     9    8   10 1
    10    8   11 1
    11    1   12 1
    12    1   13 1
    13    1   14 1
    14    2   15 1
    15    2   16 1
    16    2   17 1
    17    3   18 1
    18    3   19 1
    19    3   20 1
    20    4   21 1
    21    4   22 1
    22    4   23 1
    23    5   24 1
    24    5   25 1
    25    6   26 1
    26    7   27 1
    27    9   28 1
    28   10   29 1
@<TRIPOS>SUBSTRUCTURE
     1 <0>         1 GROUP 0 A     ****
