@<TRIPOS>MOLECULE
AlkEthOH_c1052
   30    29     1     0     0
SMALL
USER_CHARGES

@<TRIPOS>ATOM
      1 C1          3.9383    0.2064    0.0615 CT        1 <0>       -0.09280
      2 C2         -0.6205    2.2071   -0.5339 CT        1 <0>       -0.09237
      3 C3         -2.8667    1.5256   -1.3863 CT        1 <0>       -0.09237
      4 C4          0.2395   -2.2771   -0.2051 CT        1 <0>       -0.12469
      5 C5          2.6942   -0.6357    0.2929 CT        1 <0>       -0.07960
      6 C6          1.3878    0.0014   -0.2044 CT        1 <0>       -0.06897
      7 C7         -1.0794   -0.2430   -0.8413 CT        1 <0>       -0.10574
      8 C8         -1.7048    1.1240   -0.4782 CT        1 <0>       -0.05916
      9 C9          0.0745   -0.7719    0.0537 CT        1 <0>        0.15696
     10 O1         -0.2945   -0.6149    1.4240 OH        1 <0>       -0.59486
     11 H1          4.0401    0.4797   -0.9933 HC        1 <0>        0.03217
     12 H2          4.8306   -0.3580    0.3514 HC        1 <0>        0.03217
     13 H3          3.9234    1.1205    0.6610 HC        1 <0>        0.03217
     14 H4         -0.2090    2.2952   -1.5449 HC        1 <0>        0.03450
     15 H5         -1.0196    3.1847   -0.2424 HC        1 <0>        0.03450
     16 H6          0.2077    1.9642    0.1406 HC        1 <0>        0.03450
     17 H7         -2.5566    1.5752   -2.4338 HC        1 <0>        0.03450
     18 H8         -3.2778    2.4993   -1.0996 HC        1 <0>        0.03450
     19 H9         -3.6762    0.7894   -1.3310 HC        1 <0>        0.03450
     20 H10        -0.7009   -2.8088   -0.0172 HC        1 <0>        0.04201
     21 H11         0.9728   -2.7247    0.4738 HC        1 <0>        0.04201
     22 H12         0.5449   -2.4767   -1.2374 HC        1 <0>        0.04201
     23 H13         2.6161   -0.8951    1.3542 HC        1 <0>        0.04439
     24 H14         2.8251   -1.5856   -0.2406 HC        1 <0>        0.04439
     25 H15         1.4957    0.1611   -1.2852 HC        1 <0>        0.05101
     26 H16         1.3212    0.9936    0.2589 HC        1 <0>        0.05101
     27 H17        -1.8858   -0.9898   -0.8499 HC        1 <0>        0.04299
     28 H18        -0.7076   -0.1765   -1.8732 HC        1 <0>        0.04299
     29 H19        -2.0702    1.0900    0.5549 HC        1 <0>        0.05142
     30 H20        -1.1276   -1.0960    1.5399 HO        1 <0>        0.39586
@<TRIPOS>BOND
     1    1    5 1
     2    2    8 1
     3    3    8 1
     4    4    9 1
     5    5    6 1
     6    6    9 1
     7    7    8 1
     8    7    9 1
     9    9   10 1
    10    1   11 1
    11    1   12 1
    12    1   13 1
    13    2   14 1
    14    2   15 1
    15    2   16 1
    16    3   17 1
    17    3   18 1
    18    3   19 1
    19    4   20 1
    20    4   21 1
    21    4   22 1
    22    5   23 1
    23    5   24 1
    24    6   25 1
    25    6   26 1
    26    7   27 1
    27    7   28 1
    28    8   29 1
    29   10   30 1
@<TRIPOS>SUBSTRUCTURE
     1 <0>         1 GROUP 0 A     ****
