@<TRIPOS>MOLECULE
AlkEthOH_c18
   17    16     1     0     0
SMALL
USER_CHARGES

@<TRIPOS>ATOM
      1 C1         -0.8197   -0.3184    0.6555 CT        1 <0>       -0.11940
      2 C2         -0.4755   -1.7525    1.0493 CT        1 <0>        0.13607
      3 C3         -2.4180    1.2380   -0.5224 CT        1 <0>        0.09616
      4 C4         -2.1524   -0.2028   -0.0930 CT        1 <0>        0.13915
      5 O1          0.7756   -1.7823    1.7209 OH        1 <0>       -0.60569
      6 O2         -3.6622    1.3161   -1.2103 OH        1 <0>       -0.58539
      7 O3         -2.0968   -1.0245   -1.2589 OH        1 <0>       -0.58184
      8 H1         -0.8670    0.2982    1.5613 HC        1 <0>        0.05710
      9 H2         -0.0085    0.0660    0.0253 HC        1 <0>        0.05710
     10 H3         -1.2394   -2.1810    1.7055 H1        1 <0>        0.03170
     11 H4         -0.3985   -2.3758    0.1527 H1        1 <0>        0.03170
     12 H5         -2.4633    1.9131    0.3379 H1        1 <0>        0.02736
     13 H6         -1.6438    1.5932   -1.2100 H1        1 <0>        0.02736
     14 H7         -2.9781   -0.5705    0.5267 H1        1 <0>        0.09064
     15 H8          0.9498   -2.7099    1.9498 HO        1 <0>        0.40172
     16 H9         -3.7833    2.2456   -1.4602 HO        1 <0>        0.39962
     17 H10        -1.3619   -0.6901   -1.7949 HO        1 <0>        0.39664
@<TRIPOS>BOND
     1    1    2 1
     2    1    4 1
     3    2    5 1
     4    3    4 1
     5    3    6 1
     6    4    7 1
     7    1    8 1
     8    1    9 1
     9    2   10 1
    10    2   11 1
    11    3   12 1
    12    3   13 1
    13    4   14 1
    14    5   15 1
    15    6   16 1
    16    7   17 1
@<TRIPOS>SUBSTRUCTURE
     1 <0>         1 GROUP 0 A     ****
