@<TRIPOS>MOLECULE
AlkEthOH_c295
   33    32     1     0     0
SMALL
USER_CHARGES

@<TRIPOS>ATOM
      1 C1          1.9234    1.3589   -1.9673 CT        1 <0>       -0.09000
      2 C2          2.0464   -0.9650   -1.0694 CT        1 <0>       -0.09000
      3 C3         -2.3374   -1.5515    1.2842 CT        1 <0>       -0.08979
      4 C4         -2.4004    0.8956    1.6605 CT        1 <0>       -0.08979
      5 C5         -2.1231    0.0223   -0.6550 CT        1 <0>       -0.08979
      6 C6          1.9415    1.1708    1.1578 CT        1 <0>       -0.12663
      7 C7         -0.1947   -0.1365    1.0696 CT        1 <0>       -0.10075
      8 C8          1.1832    0.2994   -1.1314 CT        1 <0>       -0.05613
      9 C9         -1.7356   -0.2163    0.8108 CT        1 <0>       -0.04381
     10 C10         0.7327    0.8250    0.2629 CT        1 <0>        0.16536
     11 O1          0.0321    2.0596    0.0533 OH        1 <0>       -0.59902
     12 H1          2.8523    1.6556   -1.4669 HC        1 <0>        0.03614
     13 H2          2.1965    0.9738   -2.9547 HC        1 <0>        0.03614
     14 H3          1.3240    2.2643   -2.1036 HC        1 <0>        0.03614
     15 H4          2.9658   -0.7991   -0.4988 HC        1 <0>        0.03614
     16 H5          1.5154   -1.8050   -0.6164 HC        1 <0>        0.03614
     17 H6          2.3405   -1.2742   -2.0788 HC        1 <0>        0.03614
     18 H7         -1.9121   -2.3931    0.7240 HC        1 <0>        0.03573
     19 H8         -3.4219   -1.5747    1.1301 HC        1 <0>        0.03573
     20 H9         -2.1398   -1.7516    2.3384 HC        1 <0>        0.03573
     21 H10        -2.0232    1.8866    1.3832 HC        1 <0>        0.03573
     22 H11        -3.4877    0.9086    1.5224 HC        1 <0>        0.03573
     23 H12        -2.2024    0.7478    2.7284 HC        1 <0>        0.03573
     24 H13        -1.7161    0.9635   -1.0364 HC        1 <0>        0.03573
     25 H14        -1.7339   -0.7750   -1.2993 HC        1 <0>        0.03573
     26 H15        -3.2112    0.0387   -0.7801 HC        1 <0>        0.03573
     27 H16         2.6433    1.8459    0.6598 HC        1 <0>        0.04185
     28 H17         1.6276    1.6210    2.1048 HC        1 <0>        0.04185
     29 H18         2.4908    0.2629    1.4355 HC        1 <0>        0.04185
     30 H19         0.2163   -1.1538    1.0176 HC        1 <0>        0.04357
     31 H20        -0.0832    0.1613    2.1236 HC        1 <0>        0.04357
     32 H21         0.2824    0.0748   -1.7112 HC        1 <0>        0.06022
     33 H22        -0.2293    2.3700    0.9311 HO        1 <0>        0.39903
@<TRIPOS>BOND
     1    1    8 1
     2    2    8 1
     3    3    9 1
     4    4    9 1
     5    5    9 1
     6    6   10 1
     7    7    9 1
     8    7   10 1
     9    8   10 1
    10   10   11 1
    11    1   12 1
    12    1   13 1
    13    1   14 1
    14    2   15 1
    15    2   16 1
    16    2   17 1
    17    3   18 1
    18    3   19 1
    19    3   20 1
    20    4   21 1
    21    4   22 1
    22    4   23 1
    23    5   24 1
    24    5   25 1
    25    5   26 1
    26    6   27 1
    27    6   28 1
    28    6   29 1
    29    7   30 1
    30    7   31 1
    31    8   32 1
    32   11   33 1
@<TRIPOS>SUBSTRUCTURE
     1 <0>         1 GROUP 0 A     ****
