@<TRIPOS>MOLECULE
AlkEthOH_c47
   23    22     1     0     0
SMALL
USER_CHARGES

@<TRIPOS>ATOM
      1 C1         -1.5504    2.0856    0.4481 CT        1 <0>       -0.12691
      2 C2          1.5157   -2.0572    0.8478 CT        1 <0>       -0.12691
      3 C3         -1.3207   -0.9970    1.0223 CT        1 <0>       -0.08632
      4 C4         -0.6002    1.1142   -0.2441 CT        1 <0>        0.11065
      5 C5          0.9895   -0.9197   -0.0246 CT        1 <0>        0.11065
      6 C6         -0.1445   -0.0856    0.6286 CT        1 <0>        0.17138
      7 O1          0.5548    1.8487   -0.6652 OH        1 <0>       -0.61127
      8 O2          0.5057   -1.4975   -1.2417 OH        1 <0>       -0.61127
      9 O3          0.3781    0.4611    1.8521 OH        1 <0>       -0.59620
     10 H1         -1.1164    2.4778    1.3734 HC        1 <0>        0.04642
     11 H2         -1.7368    2.9539   -0.1940 HC        1 <0>        0.04642
     12 H3         -2.5151    1.6249    0.6752 HC        1 <0>        0.04642
     13 H4          0.6961   -2.7258    1.1342 HC        1 <0>        0.04642
     14 H5          2.2700   -2.6549    0.3297 HC        1 <0>        0.04642
     15 H6          1.9440   -1.6776    1.7815 HC        1 <0>        0.04642
     16 H7         -0.9872   -1.8398    1.6377 HC        1 <0>        0.05083
     17 H8         -1.7861   -1.4474    0.1381 HC        1 <0>        0.05083
     18 H9         -2.0908   -0.4491    1.5736 HC        1 <0>        0.05083
     19 H10        -1.0650    0.7419   -1.1641 H1        1 <0>        0.05580
     20 H11         1.8213   -0.2623   -0.3010 H1        1 <0>        0.05580
     21 H12         0.2338    2.5306   -1.2724 HO        1 <0>        0.40424
     22 H13         1.2623   -1.9445   -1.6476 HO        1 <0>        0.40424
     23 H14         1.1144    1.0303    1.5925 HO        1 <0>        0.41511
@<TRIPOS>BOND
     1    1    4 1
     2    2    5 1
     3    3    6 1
     4    4    6 1
     5    4    7 1
     6    5    6 1
     7    5    8 1
     8    6    9 1
     9    1   10 1
    10    1   11 1
    11    1   12 1
    12    2   13 1
    13    2   14 1
    14    2   15 1
    15    3   16 1
    16    3   17 1
    17    3   18 1
    18    4   19 1
    19    5   20 1
    20    7   21 1
    21    8   22 1
    22    9   23 1
@<TRIPOS>SUBSTRUCTURE
     1 <0>         1 GROUP 0 A     ****
