@<TRIPOS>MOLECULE
AlkEthOH_c1019
   25    24     1     0     0
SMALL
USER_CHARGES

@<TRIPOS>ATOM
      1 C1          0.1845    0.1039    1.0453 CT        1 <0>       -0.09168
      2 C2         -4.2517    4.0775    2.0394 CT        1 <0>       -0.12773
      3 C3         -1.3844    3.7662    3.1685 CT        1 <0>       -0.12165
      4 C4         -0.7641    1.0542    1.7617 CT        1 <0>       -0.07549
      5 C5         -0.7734    2.4328    1.0976 CT        1 <0>       -0.09981
      6 C6         -3.2409    3.0211    1.5975 CT        1 <0>        0.15597
      7 C7         -1.7579    3.4580    1.7131 CT        1 <0>        0.15111
      8 O1         -3.5464    2.6672    0.2469 OH        1 <0>       -0.59910
      9 O2         -1.5759    4.6858    0.9911 OH        1 <0>       -0.59914
     10 H1         -0.0921   -0.0067   -0.0081 HC        1 <0>        0.03335
     11 H2          0.1725   -0.8870    1.5103 HC        1 <0>        0.03335
     12 H3          1.2088    0.4871    1.0889 HC        1 <0>        0.03335
     13 H4         -4.1416    5.0079    1.4760 HC        1 <0>        0.04925
     14 H5         -5.2806    3.7184    1.9310 HC        1 <0>        0.04925
     15 H6         -4.1158    4.3061    3.1025 HC        1 <0>        0.04925
     16 H7         -2.0820    4.4919    3.6028 HC        1 <0>        0.04333
     17 H8         -1.4567    2.8721    3.7973 HC        1 <0>        0.04333
     18 H9         -0.3705    4.1681    3.2559 HC        1 <0>        0.04333
     19 H10        -0.4530    1.1361    2.8083 HC        1 <0>        0.04140
     20 H11        -1.7683    0.6180    1.7505 HC        1 <0>        0.04140
     21 H12         0.2403    2.8561    1.1290 HC        1 <0>        0.05338
     22 H13        -0.9892    2.3174    0.0269 HC        1 <0>        0.05338
     23 H14        -3.4060    2.1201    2.1987 H1        1 <0>        0.03770
     24 H15        -4.4507    2.3200    0.2543 HO        1 <0>        0.40329
     25 H16        -0.6439    4.9201    1.0965 HO        1 <0>        0.39918
@<TRIPOS>BOND
     1    1    4 1
     2    2    6 1
     3    3    7 1
     4    4    5 1
     5    5    7 1
     6    6    7 1
     7    6    8 1
     8    7    9 1
     9    1   10 1
    10    1   11 1
    11    1   12 1
    12    2   13 1
    13    2   14 1
    14    2   15 1
    15    3   16 1
    16    3   17 1
    17    3   18 1
    18    4   19 1
    19    4   20 1
    20    5   21 1
    21    5   22 1
    22    6   23 1
    23    8   24 1
    24    9   25 1
@<TRIPOS>SUBSTRUCTURE
     1 <0>         1 GROUP 0 A     ****
