@<TRIPOS>MOLECULE
AlkEthOH_c815
   13    12     1     0     0
SMALL
USER_CHARGES

@<TRIPOS>ATOM
      1 C1          1.0694   -0.1850    0.1514 CT        1 <0>       -0.12337
      2 C2          1.9046    1.9800    2.9764 CT        1 <0>        0.11809
      3 C3          1.7322    1.0078    0.8237 CT        1 <0>        0.32971
      4 O1          1.6392    2.1500   -0.0223 OH        1 <0>       -0.61616
      5 O2          1.1003    1.2158    2.0878 OS        1 <0>       -0.40381
      6 H1          0.0048    0.0045   -0.0183 HC        1 <0>        0.05274
      7 H2          1.5243   -0.3813   -0.8261 HC        1 <0>        0.05274
      8 H3          1.1850   -1.0899    0.7561 HC        1 <0>        0.05274
      9 H4          1.3780    2.1102    3.9250 H1        1 <0>        0.03740
     10 H5          2.1184    2.9542    2.5295 H1        1 <0>        0.03740
     11 H6          2.8427    1.4486    3.1530 H1        1 <0>        0.03740
     12 H7          2.7941    0.7849    0.9783 H2        1 <0>        0.01866
     13 H8          2.0913    1.9473   -0.8583 HO        1 <0>        0.40646
@<TRIPOS>BOND
     1    1    3 1
     2    2    5 1
     3    3    4 1
     4    3    5 1
     5    1    6 1
     6    1    7 1
     7    1    8 1
     8    2    9 1
     9    2   10 1
    10    2   11 1
    11    3   12 1
    12    4   13 1
@<TRIPOS>SUBSTRUCTURE
     1 <0>         1 GROUP 0 A     ****
