@<TRIPOS>MOLECULE
AlkEthOH_c445
   29    28     1     0     0
SMALL
USER_CHARGES

@<TRIPOS>ATOM
      1 C1         -1.3248    2.0581    1.1209 CT        1 <0>       -0.09138
      2 C2         -3.2783    0.5458    1.5180 CT        1 <0>       -0.09138
      3 C3          2.5973   -1.6541    2.0462 CT        1 <0>       -0.13312
      4 C4          2.8488    0.4129    0.6725 CT        1 <0>       -0.13312
      5 C5         -1.3785   -0.1778   -0.0228 CT        1 <0>       -0.09820
      6 C6         -1.7744    0.6000    1.2471 CT        1 <0>       -0.06455
      7 C7          0.1256   -0.2105   -0.3214 CT        1 <0>        0.34374
      8 C8          2.1785   -0.9600    0.7476 CT        1 <0>        0.35204
      9 O1          0.3254   -0.9466   -1.5230 OH        1 <0>       -0.61973
     10 O2          2.6355   -1.7401   -0.3562 OH        1 <0>       -0.61502
     11 O3          0.7512   -0.8377    0.8006 OS        1 <0>       -0.44867
     12 H1         -1.8146    2.5445    0.2706 HC        1 <0>        0.03309
     13 H2         -0.2416    2.1290    0.9740 HC        1 <0>        0.03309
     14 H3         -1.5830    2.6248    2.0218 HC        1 <0>        0.03309
     15 H4         -3.8475    0.9682    0.6831 HC        1 <0>        0.03309
     16 H5         -3.6173   -0.4821    1.6779 HC        1 <0>        0.03309
     17 H6         -3.5311    1.1131    2.4203 HC        1 <0>        0.03309
     18 H7          2.1274   -2.6420    2.1211 HC        1 <0>        0.05276
     19 H8          2.2799   -1.0814    2.9243 HC        1 <0>        0.05276
     20 H9          3.6809   -1.8073    2.0876 HC        1 <0>        0.05276
     21 H10         2.5729    0.9421   -0.2454 HC        1 <0>        0.05276
     22 H11         2.5801    1.0301    1.5371 HC        1 <0>        0.05276
     23 H12         3.9402    0.3266    0.6912 HC        1 <0>        0.05276
     24 H13        -1.8903    0.2783   -0.8818 HC        1 <0>        0.05751
     25 H14        -1.7543   -1.2081    0.0333 HC        1 <0>        0.05751
     26 H15        -1.2544    0.1667    2.1102 HC        1 <0>        0.06194
     27 H16         0.4938    0.8104   -0.4528 H2        1 <0>        0.06945
     28 H17        -0.0228   -1.8415   -1.3705 HO        1 <0>        0.42849
     29 H18         3.6038   -1.8063   -0.3050 HO        1 <0>        0.40939
@<TRIPOS>BOND
     1    1    6 1
     2    2    6 1
     3    3    8 1
     4    4    8 1
     5    5    6 1
     6    5    7 1
     7    7    9 1
     8    7   11 1
     9    8   10 1
    10    8   11 1
    11    1   12 1
    12    1   13 1
    13    1   14 1
    14    2   15 1
    15    2   16 1
    16    2   17 1
    17    3   18 1
    18    3   19 1
    19    3   20 1
    20    4   21 1
    21    4   22 1
    22    4   23 1
    23    5   24 1
    24    5   25 1
    25    6   26 1
    26    7   27 1
    27    9   28 1
    28   10   29 1
@<TRIPOS>SUBSTRUCTURE
     1 <0>         1 GROUP 0 A     ****
