@<TRIPOS>MOLECULE
AlkEthOH_c948
   22    21     1     0     0
SMALL
USER_CHARGES

@<TRIPOS>ATOM
      1 C1          1.1685   -0.8418   -1.7766 CT        1 <0>       -0.09179
      2 C2          0.6418    0.8231    1.7180 CT        1 <0>       -0.12643
      3 C3          1.2750   -0.5677   -0.2807 CT        1 <0>       -0.06504
      4 C4         -1.0372    0.5882   -0.1665 CT        1 <0>       -0.11169
      5 C5         -1.8146   -0.5884    0.4105 CT        1 <0>        0.13634
      6 C6          0.4570    0.6477    0.2052 CT        1 <0>        0.15448
      7 O1         -3.1600   -0.5100   -0.0468 OH        1 <0>       -0.60243
      8 O2          0.9795    1.8274   -0.4226 OH        1 <0>       -0.59847
      9 H1          0.1232   -1.0222   -2.0485 HC        1 <0>        0.03878
     10 H2          1.5193    0.0095   -2.3669 HC        1 <0>        0.03878
     11 H3          1.7460   -1.7258   -2.0633 HC        1 <0>        0.03878
     12 H4          0.0680    1.6824    2.0835 HC        1 <0>        0.04278
     13 H5          0.3330   -0.0657    2.2764 HC        1 <0>        0.04278
     14 H6          1.6907    1.0292    1.9613 HC        1 <0>        0.04278
     15 H7          2.3364   -0.3940   -0.0594 HC        1 <0>        0.04557
     16 H8          0.9845   -1.4699    0.2700 HC        1 <0>        0.04557
     17 H9         -1.5256    1.5233    0.1439 HC        1 <0>        0.06158
     18 H10        -1.1536    0.5983   -1.2588 HC        1 <0>        0.06158
     19 H11        -1.3999   -1.5438    0.0781 H1        1 <0>        0.02390
     20 H12        -1.8264   -0.5624    1.5035 H1        1 <0>        0.02390
     21 H13        -3.6284   -1.2690    0.3353 HO        1 <0>        0.39998
     22 H14         0.4621    2.5663   -0.0738 HO        1 <0>        0.39827
@<TRIPOS>BOND
     1    1    3 1
     2    2    6 1
     3    3    6 1
     4    4    5 1
     5    4    6 1
     6    5    7 1
     7    6    8 1
     8    1    9 1
     9    1   10 1
    10    1   11 1
    11    2   12 1
    12    2   13 1
    13    2   14 1
    14    3   15 1
    15    3   16 1
    16    4   17 1
    17    4   18 1
    18    5   19 1
    19    5   20 1
    20    7   21 1
    21    8   22 1
@<TRIPOS>SUBSTRUCTURE
     1 <0>         1 GROUP 0 A     ****
