@<TRIPOS>MOLECULE
AlkEthOH_c912
   22    21     1     0     0
SMALL
USER_CHARGES

@<TRIPOS>ATOM
      1 C1         -0.2325   -2.3405   -0.0081 CT        1 <0>       -0.09256
      2 C2         -0.9918    1.1098    1.3781 CT        1 <0>       -0.12882
      3 C3          0.0830    1.2527   -1.5028 CT        1 <0>       -0.12307
      4 C4         -0.4649   -1.1174   -0.8888 CT        1 <0>       -0.10662
      5 C5          0.3480    0.5247    0.9442 CT        1 <0>        0.15192
      6 C6          0.4202    0.1005   -0.5437 CT        1 <0>        0.15806
      7 O1          1.3617    1.5042    1.1961 OH        1 <0>       -0.58742
      8 O2          1.7785   -0.2801   -0.8166 OH        1 <0>       -0.58599
      9 H1         -0.4192   -2.1156    1.0464 HC        1 <0>        0.03823
     10 H2          0.8068   -2.6730   -0.1002 HC        1 <0>        0.03823
     11 H3         -0.8721   -3.1769   -0.3038 HC        1 <0>        0.03823
     12 H4         -1.2817    1.9696    0.7690 HC        1 <0>        0.04352
     13 H5         -1.7800    0.3536    1.2888 HC        1 <0>        0.04352
     14 H6         -0.9752    1.4092    2.4309 HC        1 <0>        0.04352
     15 H7          0.6852    2.1433   -1.2997 HC        1 <0>        0.04739
     16 H8          0.2312    0.9622   -2.5486 HC        1 <0>        0.04739
     17 H9         -0.9745    1.5297   -1.4158 HC        1 <0>        0.04739
     18 H10        -0.2582   -1.4239   -1.9229 HC        1 <0>        0.04299
     19 H11        -1.5258   -0.8444   -0.8494 HC        1 <0>        0.04299
     20 H12         0.5966   -0.3320    1.5811 H1        1 <0>        0.04682
     21 H13         1.3378    1.6782    2.1479 HO        1 <0>        0.39696
     22 H14         1.7954   -0.5542   -1.7433 HO        1 <0>        0.39732
@<TRIPOS>BOND
     1    1    4 1
     2    2    5 1
     3    3    6 1
     4    4    6 1
     5    5    6 1
     6    5    7 1
     7    6    8 1
     8    1    9 1
     9    1   10 1
    10    1   11 1
    11    2   12 1
    12    2   13 1
    13    2   14 1
    14    3   15 1
    15    3   16 1
    16    3   17 1
    17    4   18 1
    18    4   19 1
    19    5   20 1
    20    7   21 1
    21    8   22 1
@<TRIPOS>SUBSTRUCTURE
     1 <0>         1 GROUP 0 A     ****
