@<TRIPOS>MOLECULE
AlkEthOH_c1220
   21    20     1     0     0
SMALL
USER_CHARGES

@<TRIPOS>ATOM
      1 C1          3.6260   -0.9525   -1.0236 CT        1 <0>       -0.09805
      2 C2         -0.4956   -1.2446    1.2676 CT        1 <0>       -0.11114
      3 C3          2.3207   -0.2066   -0.8462 CT        1 <0>        0.14083
      4 C4         -1.6819    0.6186   -0.9031 CT        1 <0>        0.34911
      5 C5          0.2155   -0.3009    0.2882 CT        1 <0>        0.53533
      6 O1         -1.3541    1.9673   -1.2060 OH        1 <0>       -0.60710
      7 O2          0.3995    0.9733    0.9122 OH        1 <0>       -0.67021
      8 O3          1.4907   -0.9326    0.0515 OS        1 <0>       -0.45685
      9 O4         -0.5477   -0.2402   -0.9277 OS        1 <0>       -0.46777
     10 H1          4.1499   -1.0547   -0.0691 HC        1 <0>        0.04440
     11 H2          3.4473   -1.9504   -1.4374 HC        1 <0>        0.04440
     12 H3          4.2777   -0.4272   -1.7297 HC        1 <0>        0.04440
     13 H4         -0.6503   -2.2306    0.8156 HC        1 <0>        0.06130
     14 H5         -1.4718   -0.8589    1.5766 HC        1 <0>        0.06130
     15 H6          0.1015   -1.3822    2.1766 HC        1 <0>        0.06130
     16 H7          1.8019   -0.1079   -1.8044 H1        1 <0>        0.04688
     17 H8          2.5010    0.7898   -0.4320 H1        1 <0>        0.04688
     18 H9         -2.2270    0.5686    0.0442 H2        1 <0>        0.05975
     19 H10        -2.3601    0.2729   -1.6885 H2        1 <0>        0.05975
     20 H11        -2.1810    2.4771   -1.1665 HO        1 <0>        0.41930
     21 H12         0.9399    0.8616    1.7116 HO        1 <0>        0.43619
@<TRIPOS>BOND
     1    1    3 1
     2    2    5 1
     3    3    8 1
     4    4    6 1
     5    4    9 1
     6    5    7 1
     7    5    8 1
     8    5    9 1
     9    1   10 1
    10    1   11 1
    11    1   12 1
    12    2   13 1
    13    2   14 1
    14    2   15 1
    15    3   16 1
    16    3   17 1
    17    4   18 1
    18    4   19 1
    19    6   20 1
    20    7   21 1
@<TRIPOS>SUBSTRUCTURE
     1 <0>         1 GROUP 0 A     ****
