@<TRIPOS>MOLECULE
AlkEthOH_c276
   27    26     1     0     0
SMALL
USER_CHARGES

@<TRIPOS>ATOM
      1 C1         -0.8448    1.6788   -1.5322 CT        1 <0>       -0.09129
      2 C2         -0.6800    1.8419    0.9450 CT        1 <0>       -0.09129
      3 C3          2.1963   -0.5318    1.0319 CT        1 <0>       -0.13018
      4 C4         -1.5649   -0.9874   -0.0256 CT        1 <0>       -0.08690
      5 C5          0.4529   -1.0634   -1.4792 CT        1 <0>       -0.08690
      6 C6         -0.1170    1.1289   -0.2939 CT        1 <0>       -0.05982
      7 C7          0.7238   -0.9360    1.0529 CT        1 <0>        0.14508
      8 C8         -0.1215   -0.4462   -0.1790 CT        1 <0>       -0.03423
      9 O1          0.7041   -2.3638    1.1553 OH        1 <0>       -0.60558
     10 H1         -1.9043    1.3983   -1.5048 HC        1 <0>        0.03433
     11 H2         -0.8116    2.7708   -1.5741 HC        1 <0>        0.03433
     12 H3         -0.4299    1.2806   -2.4627 HC        1 <0>        0.03433
     13 H4         -1.7266    1.5596    1.1066 HC        1 <0>        0.03433
     14 H5         -0.6632    2.9291    0.8335 HC        1 <0>        0.03433
     15 H6         -0.1267    1.5782    1.8514 HC        1 <0>        0.03433
     16 H7          2.7084   -0.8744    0.1297 HC        1 <0>        0.04285
     17 H8          2.7303   -0.9088    1.9097 HC        1 <0>        0.04285
     18 H9          2.2844    0.5603    1.0702 HC        1 <0>        0.04285
     19 H10        -2.0471   -0.5962    0.8771 HC        1 <0>        0.03908
     20 H11        -1.5856   -2.0777    0.0655 HC        1 <0>        0.03908
     21 H12        -2.1917   -0.7075   -0.8783 HC        1 <0>        0.03908
     22 H13         1.4790   -0.7283   -1.6620 HC        1 <0>        0.03908
     23 H14        -0.1450   -0.7906   -2.3552 HC        1 <0>        0.03908
     24 H15         0.4609   -2.1581   -1.4395 HC        1 <0>        0.03908
     25 H16         0.9268    1.4520   -0.3998 HC        1 <0>        0.04272
     26 H17         0.2822   -0.5587    1.9824 H1        1 <0>        0.03208
     27 H18         1.1608   -2.5814    1.9806 HO        1 <0>        0.39730
@<TRIPOS>BOND
     1    1    6 1
     2    2    6 1
     3    3    7 1
     4    4    8 1
     5    5    8 1
     6    6    8 1
     7    7    8 1
     8    7    9 1
     9    1   10 1
    10    1   11 1
    11    1   12 1
    12    2   13 1
    13    2   14 1
    14    2   15 1
    15    3   16 1
    16    3   17 1
    17    3   18 1
    18    4   19 1
    19    4   20 1
    20    4   21 1
    21    5   22 1
    22    5   23 1
    23    5   24 1
    24    6   25 1
    25    7   26 1
    26    9   27 1
@<TRIPOS>SUBSTRUCTURE
     1 <0>         1 GROUP 0 A     ****
