@<TRIPOS>MOLECULE
AlkEthOH_c780
   25    24     1     0     0
SMALL
USER_CHARGES

@<TRIPOS>ATOM
      1 C1         -2.8888   -2.4992    4.7841 CT        1 <0>       -0.13428
      2 C2         -0.4645   -0.0646    0.9894 CT        1 <0>       -0.10817
      3 C3          1.6273    0.6910    2.1567 CT        1 <0>       -0.10817
      4 C4          1.2036   -1.7604    1.8118 CT        1 <0>       -0.10817
      5 C5         -1.1266   -1.4328    3.3392 CT        1 <0>        0.13040
      6 C6         -1.8032   -1.4366    4.7041 CT        1 <0>        0.13839
      7 C7          0.5609   -0.3988    2.0719 CT        1 <0>        0.14910
      8 O1         -0.8136   -1.7126    5.6942 OH        1 <0>       -0.58687
      9 O2         -0.1082   -0.4451    3.3327 OS        1 <0>       -0.40684
     10 H1         -2.4736   -3.4890    4.5656 HC        1 <0>        0.04319
     11 H2         -3.3459   -2.5265    5.7780 HC        1 <0>        0.04319
     12 H3         -3.6725   -2.3162    4.0408 HC        1 <0>        0.04319
     13 H4         -1.2317   -0.8445    0.9253 HC        1 <0>        0.04327
     14 H5         -0.9578    0.8935    1.1830 HC        1 <0>        0.04327
     15 H6          0.0103   -0.0162    0.0027 HC        1 <0>        0.04327
     16 H7          2.3651    0.4554    2.9322 HC        1 <0>        0.04327
     17 H8          1.1816    1.6524    2.4367 HC        1 <0>        0.04327
     18 H9          2.1531    0.8168    1.2047 HC        1 <0>        0.04327
     19 H10         1.9391   -2.0003    2.5882 HC        1 <0>        0.04327
     20 H11         0.4566   -2.5604    1.7845 HC        1 <0>        0.04327
     21 H12         1.7476   -1.7592    0.8603 HC        1 <0>        0.04327
     22 H13        -0.6584   -2.3995    3.1261 H1        1 <0>        0.03558
     23 H14        -1.8405   -1.1896    2.5461 H1        1 <0>        0.03558
     24 H15        -2.2184   -0.4466    4.9226 H1        1 <0>        0.04820
     25 H16        -1.2672   -1.6872    6.5504 HO        1 <0>        0.39625
@<TRIPOS>BOND
     1    1    6 1
     2    2    7 1
     3    3    7 1
     4    4    7 1
     5    5    6 1
     6    5    9 1
     7    6    8 1
     8    7    9 1
     9    1   10 1
    10    1   11 1
    11    1   12 1
    12    2   13 1
    13    2   14 1
    14    2   15 1
    15    3   16 1
    16    3   17 1
    17    3   18 1
    18    4   19 1
    19    4   20 1
    20    4   21 1
    21    5   22 1
    22    5   23 1
    23    6   24 1
    24    8   25 1
@<TRIPOS>SUBSTRUCTURE
     1 <0>         1 GROUP 0 A     ****
