@<TRIPOS>MOLECULE
AlkEthOH_c1183
   33    32     1     0     0
SMALL
USER_CHARGES

@<TRIPOS>ATOM
      1 C1          3.1383   -0.9027   -2.5350 CT        1 <0>       -0.09743
      2 C2          0.4891    2.5296    0.4129 CT        1 <0>       -0.08622
      3 C3         -0.7588    0.8841    1.8073 CT        1 <0>       -0.08622
      4 C4          1.5520    0.3539    1.0761 CT        1 <0>       -0.08622
      5 C5         -0.9254   -1.5836   -2.1467 CT        1 <0>       -0.10572
      6 C6         -0.5294   -2.1113    0.2554 CT        1 <0>       -0.10572
      7 C7         -0.3895    0.3243   -0.6044 CT        1 <0>       -0.09144
      8 C8          1.6718   -0.6276   -2.2795 CT        1 <0>        0.12469
      9 C9          0.2416    1.0314    0.6354 CT        1 <0>       -0.04458
     10 C10        -0.1401   -1.1793   -0.8883 CT        1 <0>        0.16034
     11 O1          1.2423   -1.4029   -1.1721 OS        1 <0>       -0.41776
     12 H1          3.7432   -0.6332   -1.6648 HC        1 <0>        0.04292
     13 H2          3.2985   -1.9617   -2.7626 HC        1 <0>        0.04292
     14 H3          3.4924   -0.3340   -3.4012 HC        1 <0>        0.04292
     15 H4          1.1943    2.6935   -0.4104 HC        1 <0>        0.03456
     16 H5          0.9150    2.9975    1.3073 HC        1 <0>        0.03456
     17 H6         -0.4311    3.0608    0.1519 HC        1 <0>        0.03456
     18 H7         -0.9743   -0.1707    2.0126 HC        1 <0>        0.03456
     19 H8         -1.7087    1.3831    1.5835 HC        1 <0>        0.03456
     20 H9         -0.3638    1.3281    2.7283 HC        1 <0>        0.03456
     21 H10         1.4013   -0.7196    1.2418 HC        1 <0>        0.03456
     22 H11         1.9402    0.7595    2.0118 HC        1 <0>        0.03456
     23 H12         2.3303    0.4611    0.3124 HC        1 <0>        0.03456
     24 H13        -0.6717   -0.9345   -2.9928 HC        1 <0>        0.04314
     25 H14        -0.7234   -2.6213   -2.4318 HC        1 <0>        0.04314
     26 H15        -2.0044   -1.4717   -1.9884 HC        1 <0>        0.04314
     27 H16         0.0147   -1.8493    1.1712 HC        1 <0>        0.04314
     28 H17        -0.3084   -3.1569    0.0197 HC        1 <0>        0.04314
     29 H18        -1.5870   -2.0103    0.5147 HC        1 <0>        0.04314
     30 H19        -0.0320    0.8674   -1.4921 HC        1 <0>        0.04201
     31 H20        -1.4751    0.4945   -0.5726 HC        1 <0>        0.04201
     32 H21         1.0724   -0.8993   -3.1536 H1        1 <0>        0.02681
     33 H22         1.5136    0.4307   -2.0515 H1        1 <0>        0.02681
@<TRIPOS>BOND
     1    1    8 1
     2    2    9 1
     3    3    9 1
     4    4    9 1
     5    5   10 1
     6    6   10 1
     7    7    9 1
     8    7   10 1
     9    8   11 1
    10   10   11 1
    11    1   12 1
    12    1   13 1
    13    1   14 1
    14    2   15 1
    15    2   16 1
    16    2   17 1
    17    3   18 1
    18    3   19 1
    19    3   20 1
    20    4   21 1
    21    4   22 1
    22    4   23 1
    23    5   24 1
    24    5   25 1
    25    5   26 1
    26    6   27 1
    27    6   28 1
    28    6   29 1
    29    7   30 1
    30    7   31 1
    31    8   32 1
    32    8   33 1
@<TRIPOS>SUBSTRUCTURE
     1 <0>         1 GROUP 0 A     ****
