@<TRIPOS>MOLECULE
AlkEthOH_c1274
   25    24     1     0     0
SMALL
USER_CHARGES

@<TRIPOS>ATOM
      1 C1          6.1293   -3.8204    2.6844 CT        1 <0>       -0.09569
      2 C2          0.9500   -0.3335    0.4393 CT        1 <0>       -0.12402
      3 C3         -0.0809    0.0233    2.6922 CT        1 <0>       -0.12402
      4 C4          2.0341   -1.3283    2.5217 CT        1 <0>       -0.06855
      5 C5          4.9032   -3.5530    1.8377 CT        1 <0>        0.13070
      6 C6          2.8970   -2.3316    1.7591 CT        1 <0>        0.13299
      7 C7          0.7167   -0.9506    1.8190 CT        1 <0>        0.15115
      8 O1         -0.0754   -2.1254    1.6340 OH        1 <0>       -0.60012
      9 O2          4.0695   -2.6213    2.5119 OS        1 <0>       -0.42887
     10 H1          6.6970   -2.9006    2.8505 HC        1 <0>        0.04409
     11 H2          5.8443   -4.2400    3.6548 HC        1 <0>        0.04409
     12 H3          6.7807   -4.5547    2.1991 HC        1 <0>        0.04409
     13 H4          1.5191   -1.0068   -0.2104 HC        1 <0>        0.04342
     14 H5         -0.0034   -0.1595   -0.0736 HC        1 <0>        0.04342
     15 H6          1.4816    0.6209    0.5096 HC        1 <0>        0.04342
     16 H7         -0.2658   -0.3887    3.6898 HC        1 <0>        0.04342
     17 H8          0.4511    0.9753    2.8017 HC        1 <0>        0.04342
     18 H9         -1.0464    0.2616    2.2313 HC        1 <0>        0.04342
     19 H10         1.8116   -1.7655    3.5047 HC        1 <0>        0.06110
     20 H11         2.6262   -0.4270    2.7262 HC        1 <0>        0.06110
     21 H12         4.3400   -4.4769    1.6754 H1        1 <0>        0.02294
     22 H13         5.1897   -3.1330    0.8689 H1        1 <0>        0.02294
     23 H14         2.3633   -3.2730    1.5998 H1        1 <0>        0.03361
     24 H15         3.2101   -1.9420    0.7862 H1        1 <0>        0.03361
     25 H16        -0.9029   -1.8342    1.2233 HO        1 <0>        0.39834
@<TRIPOS>BOND
     1    1    5 1
     2    2    7 1
     3    3    7 1
     4    4    6 1
     5    4    7 1
     6    5    9 1
     7    6    9 1
     8    7    8 1
     9    1   10 1
    10    1   11 1
    11    1   12 1
    12    2   13 1
    13    2   14 1
    14    2   15 1
    15    3   16 1
    16    3   17 1
    17    3   18 1
    18    4   19 1
    19    4   20 1
    20    5   21 1
    21    5   22 1
    22    6   23 1
    23    6   24 1
    24    8   25 1
@<TRIPOS>SUBSTRUCTURE
     1 <0>         1 GROUP 0 A     ****
