@<TRIPOS>MOLECULE
AlkEthOH_c894
   17    16     1     0     0
SMALL
USER_CHARGES

@<TRIPOS>ATOM
      1 C1          0.6377   -0.0558    2.4999 CT        1 <0>       -0.12631
      2 C2         -1.2081   -0.3377   -2.1941 CT        1 <0>        0.12104
      3 C3          0.8815    0.0242   -1.1478 CT        1 <0>        0.32200
      4 C4          0.3266    0.5001    1.1198 CT        1 <0>        0.34057
      5 O1         -1.0613    0.8121    1.0883 OH        1 <0>       -0.60581
      6 O2         -0.2805    0.6273   -1.7155 OS        1 <0>       -0.43282
      7 O3          0.6880   -0.4992    0.1661 OS        1 <0>       -0.43761
      8 H1          0.0696   -0.9719    2.6907 HC        1 <0>        0.05146
      9 H2          0.3658    0.6667    3.2779 HC        1 <0>        0.05146
     10 H3          1.7069   -0.2648    2.6066 HC        1 <0>        0.05146
     11 H4         -2.0776    0.1705   -2.6179 H1        1 <0>        0.03780
     12 H5         -1.5174   -0.9867   -1.3709 H1        1 <0>        0.03780
     13 H6         -0.7271   -0.9394   -2.9689 H1        1 <0>        0.03780
     14 H7          1.6830    0.7711   -1.1335 H2        1 <0>        0.06040
     15 H8          1.2205   -0.7941   -1.7932 H2        1 <0>        0.06040
     16 H9          0.9111    1.4146    0.9629 H2        1 <0>        0.02757
     17 H10        -1.2221    1.4719    1.7840 HO        1 <0>        0.40279
@<TRIPOS>BOND
     1    1    4 1
     2    2    6 1
     3    3    6 1
     4    3    7 1
     5    4    5 1
     6    4    7 1
     7    1    8 1
     8    1    9 1
     9    1   10 1
    10    2   11 1
    11    2   12 1
    12    2   13 1
    13    3   14 1
    14    3   15 1
    15    4   16 1
    16    5   17 1
@<TRIPOS>SUBSTRUCTURE
     1 <0>         1 GROUP 0 A     ****
