@<TRIPOS>MOLECULE
AlkEthOH_c1291
   17    16     1     0     0
SMALL
USER_CHARGES

@<TRIPOS>ATOM
      1 C1          1.0690    0.0549   -4.8747 CT        1 <0>        0.11346
      2 C2          0.9523    0.5385   -0.0326 CT        1 <0>        0.09483
      3 C3          0.9856    0.2573   -2.5348 CT        1 <0>        0.09066
      4 C4          1.1440    1.2331   -1.3744 CT        1 <0>        0.14119
      5 O1          1.1387    1.4891    1.0107 OH        1 <0>       -0.58075
      6 O2          2.4671    1.7733   -1.4064 OH        1 <0>       -0.56007
      7 O3          1.1659    0.9422   -3.7700 OS        1 <0>       -0.40241
      8 H1          1.2118    0.6118   -5.8040 H1        1 <0>        0.03420
      9 H2          0.0872   -0.4253   -4.8724 H1        1 <0>        0.03420
     10 H3          1.8458   -0.7083   -4.7868 H1        1 <0>        0.03420
     11 H4          1.6854   -0.2628    0.1078 H1        1 <0>        0.02375
     12 H5         -0.0587    0.1293    0.0585 H1        1 <0>        0.02375
     13 H6         -0.0085   -0.2005   -2.5434 H1        1 <0>        0.02823
     14 H7          1.7391   -0.5353   -2.4895 H1        1 <0>        0.02823
     15 H8          0.4552    2.0798   -1.4720 H1        1 <0>        0.10658
     16 H9          1.0096    1.0133    1.8463 HO        1 <0>        0.39893
     17 H10         3.0699    1.0224   -1.3025 HO        1 <0>        0.39102
@<TRIPOS>BOND
     1    1    7 1
     2    2    4 1
     3    2    5 1
     4    3    4 1
     5    3    7 1
     6    4    6 1
     7    1    8 1
     8    1    9 1
     9    1   10 1
    10    2   11 1
    11    2   12 1
    12    3   13 1
    13    3   14 1
    14    4   15 1
    15    5   16 1
    16    6   17 1
@<TRIPOS>SUBSTRUCTURE
     1 <0>         1 GROUP 0 A     ****
