@<TRIPOS>MOLECULE
AlkEthOH_c997
   19    18     1     0     0
SMALL
USER_CHARGES

@<TRIPOS>ATOM
      1 C1         -0.4355   -0.0407    1.1188 CT        1 <0>       -0.08875
      2 C2          5.1062    0.7219    3.7717 CT        1 <0>        0.11353
      3 C3          0.7385   -0.4820    1.9831 CT        1 <0>       -0.11191
      4 C4          3.0032    0.1109    2.9192 CT        1 <0>        0.09089
      5 C5          1.8709    0.5466    1.9931 CT        1 <0>        0.13951
      6 O1          1.3552    1.7945    2.4561 OH        1 <0>       -0.57984
      7 O2          4.0246    1.1028    2.9338 OS        1 <0>       -0.40808
      8 H1         -0.1258    0.1343    0.0837 HC        1 <0>        0.03920
      9 H2         -1.2272   -0.7966    1.1185 HC        1 <0>        0.03920
     10 H3         -0.8578    0.8922    1.5055 HC        1 <0>        0.03920
     11 H4          5.8700    1.5033    3.7598 H1        1 <0>        0.03373
     12 H5          5.5290   -0.2212    3.4164 H1        1 <0>        0.03373
     13 H6          4.7369    0.5920    4.7918 H1        1 <0>        0.03373
     14 H7          0.3705   -0.6417    3.0039 HC        1 <0>        0.04091
     15 H8          1.1113   -1.4431    1.6105 HC        1 <0>        0.04091
     16 H9          2.6481   -0.0049    3.9482 H1        1 <0>        0.02957
     17 H10         3.4512   -0.8325    2.5918 H1        1 <0>        0.02957
     18 H11         2.2496    0.7063    0.9770 H1        1 <0>        0.08969
     19 H12         1.0161    1.6362    3.3500 HO        1 <0>        0.39521
@<TRIPOS>BOND
     1    1    3 1
     2    2    7 1
     3    3    5 1
     4    4    5 1
     5    4    7 1
     6    5    6 1
     7    1    8 1
     8    1    9 1
     9    1   10 1
    10    2   11 1
    11    2   12 1
    12    2   13 1
    13    3   14 1
    14    3   15 1
    15    4   16 1
    16    4   17 1
    17    5   18 1
    18    6   19 1
@<TRIPOS>SUBSTRUCTURE
     1 <0>         1 GROUP 0 A     ****
