@<TRIPOS>MOLECULE
AlkEthOH_c1276
   24    23     1     0     0
SMALL
USER_CHARGES

@<TRIPOS>ATOM
      1 C1         -0.9565   -1.6485   -7.1522 CT        1 <0>       -0.09583
      2 C2         -0.2765   -3.2843   -0.8538 CT        1 <0>       -0.09155
      3 C3          0.0168   -0.9791    0.0745 CT        1 <0>       -0.09155
      4 C4         -0.3808   -1.3238   -2.4187 CT        1 <0>       -0.07896
      5 C5         -1.3924   -2.2541   -5.8351 CT        1 <0>        0.12986
      6 C6         -1.1136   -2.0995   -3.5067 CT        1 <0>        0.12980
      7 C7         -0.6860   -1.8165   -0.9949 CT        1 <0>       -0.06623
      8 O1         -0.7406   -1.5710   -4.7733 OS        1 <0>       -0.42519
      9 H1         -1.2242   -0.5894   -7.2023 HC        1 <0>        0.04458
     10 H2          0.1263   -1.7459   -7.2823 HC        1 <0>        0.04458
     11 H3         -1.4263   -2.1716   -7.9917 HC        1 <0>        0.04458
     12 H4          0.8000   -3.4056   -1.0148 HC        1 <0>        0.03451
     13 H5         -0.8009   -3.9152   -1.5797 HC        1 <0>        0.03451
     14 H6         -0.5068   -3.6582    0.1495 HC        1 <0>        0.03451
     15 H7          1.1046   -1.0088   -0.0494 HC        1 <0>        0.03451
     16 H8         -0.2191   -1.3525    1.0769 HC        1 <0>        0.03451
     17 H9         -0.3029    0.0666    0.0356 HC        1 <0>        0.03451
     18 H10         0.6985   -1.3957   -2.6079 HC        1 <0>        0.05444
     19 H11        -0.6213   -0.2567   -2.5134 HC        1 <0>        0.05444
     20 H12        -1.1217   -3.3133   -5.7914 H1        1 <0>        0.02228
     21 H13        -2.4743   -2.1551   -5.7063 H1        1 <0>        0.02228
     22 H14        -0.8430   -3.1597   -3.4801 H1        1 <0>        0.02504
     23 H15        -2.1983   -2.0026   -3.4059 H1        1 <0>        0.02504
     24 H16        -1.7682   -1.7520   -0.8249 HC        1 <0>        0.04533
@<TRIPOS>BOND
     1    1    5 1
     2    2    7 1
     3    3    7 1
     4    4    6 1
     5    4    7 1
     6    5    8 1
     7    6    8 1
     8    1    9 1
     9    1   10 1
    10    1   11 1
    11    2   12 1
    12    2   13 1
    13    2   14 1
    14    3   15 1
    15    3   16 1
    16    3   17 1
    17    4   18 1
    18    4   19 1
    19    5   20 1
    20    5   21 1
    21    6   22 1
    22    6   23 1
    23    7   24 1
@<TRIPOS>SUBSTRUCTURE
     1 <0>         1 GROUP 0 A     ****
