@<TRIPOS>MOLECULE
AlkEthOH_c379
   27    26     1     0     0
SMALL
USER_CHARGES

@<TRIPOS>ATOM
      1 C1          0.1736    0.8630    0.6368 CT        1 <0>       -0.09005
      2 C2          1.0340   -0.7617    2.3192 CT        1 <0>       -0.09005
      3 C3          1.4313    3.8775    1.4260 CT        1 <0>       -0.08988
      4 C4          1.8014    3.8775    3.8788 CT        1 <0>       -0.08988
      5 C5          1.3989    1.6813    2.7552 CT        1 <0>       -0.05891
      6 C6         -0.4976    3.4211    2.9707 CT        1 <0>        0.13773
      7 C7          0.4443    0.6422    2.1225 CT        1 <0>       -0.06620
      8 C8          1.0091    3.1911    2.7381 CT        1 <0>       -0.04708
      9 O1         -0.9237    2.8042    4.1791 OH        1 <0>       -0.59877
     10 H1          1.1008    0.8543    0.0548 HC        1 <0>        0.03158
     11 H2         -0.4811    0.0807    0.2368 HC        1 <0>        0.03158
     12 H3         -0.3414    1.8111    0.4662 HC        1 <0>        0.03158
     13 H4          2.0005   -0.8539    1.8120 HC        1 <0>        0.03158
     14 H5          1.1856   -0.9833    3.3812 HC        1 <0>        0.03158
     15 H6          0.3695   -1.5266    1.9031 HC        1 <0>        0.03158
     16 H7          0.9098    3.4440    0.5654 HC        1 <0>        0.03708
     17 H8          1.2362    4.9511    1.4319 HC        1 <0>        0.03708
     18 H9          2.5074    3.7584    1.2512 HC        1 <0>        0.03708
     19 H10         1.5509    3.4379    4.8512 HC        1 <0>        0.03708
     20 H11         1.5843    4.9500    3.9343 HC        1 <0>        0.03708
     21 H12         2.8822    3.7680    3.7330 HC        1 <0>        0.03708
     22 H13         2.3940    1.5695    2.3019 HC        1 <0>        0.04291
     23 H14         1.5283    1.3842    3.8062 HC        1 <0>        0.04291
     24 H15        -0.7192    4.4922    3.0416 H1        1 <0>        0.02171
     25 H16        -1.0943    3.0136    2.1482 H1        1 <0>        0.02171
     26 H17        -0.5146    0.6606    2.6532 HC        1 <0>        0.05513
     27 H18        -1.8734    2.9851    4.2654 HO        1 <0>        0.39676
@<TRIPOS>BOND
     1    1    7 1
     2    2    7 1
     3    3    8 1
     4    4    8 1
     5    5    7 1
     6    5    8 1
     7    6    8 1
     8    6    9 1
     9    1   10 1
    10    1   11 1
    11    1   12 1
    12    2   13 1
    13    2   14 1
    14    2   15 1
    15    3   16 1
    16    3   17 1
    17    3   18 1
    18    4   19 1
    19    4   20 1
    20    4   21 1
    21    5   22 1
    22    5   23 1
    23    6   24 1
    24    6   25 1
    25    7   26 1
    26    9   27 1
@<TRIPOS>SUBSTRUCTURE
     1 <0>         1 GROUP 0 A     ****
