@<TRIPOS>MOLECULE
AlkEthOH_c1181
   25    24     1     0     0
SMALL
USER_CHARGES

@<TRIPOS>ATOM
      1 C1          1.1038    2.2490    2.7179 CT        1 <0>       -0.09550
      2 C2          2.8436   -1.2687   -1.4107 CT        1 <0>       -0.12986
      3 C3          4.0514    1.2316   -0.0251 CT        1 <0>       -0.10275
      4 C4          2.4074    1.7537   -1.8363 CT        1 <0>       -0.10275
      5 C5          1.9484    1.4030    1.7891 CT        1 <0>        0.12817
      6 C6          2.1047   -0.3548   -0.4361 CT        1 <0>        0.11698
      7 C7          2.5832    1.1163   -0.4553 CT        1 <0>        0.16653
      8 O1          0.7150   -0.3967   -0.7708 OH        1 <0>       -0.58448
      9 O2          1.8020    1.8852    0.4639 OS        1 <0>       -0.40754
     10 H1          1.4216    3.2950    2.6901 HC        1 <0>        0.04381
     11 H2          0.0469    2.1930    2.4369 HC        1 <0>        0.04381
     12 H3          1.1791    1.8842    3.7476 HC        1 <0>        0.04381
     13 H4          2.7736   -0.9094   -2.4407 HC        1 <0>        0.04412
     14 H5          2.4590   -2.2931   -1.3652 HC        1 <0>        0.04412
     15 H6          3.9055   -1.3261   -1.1461 HC        1 <0>        0.04412
     16 H7          4.2172    0.7852    0.9616 HC        1 <0>        0.04686
     17 H8          4.3479    2.2830    0.0670 HC        1 <0>        0.04686
     18 H9          4.7189    0.7461   -0.7445 HC        1 <0>        0.04686
     19 H10         1.3693    1.6911   -2.1791 HC        1 <0>        0.04686
     20 H11         2.6447    2.8237   -1.8031 HC        1 <0>        0.04686
     21 H12         3.0541    1.2815   -2.5828 HC        1 <0>        0.04686
     22 H13         1.6253    0.3581    1.8217 H1        1 <0>        0.02185
     23 H14         3.0040    1.4607    2.0707 H1        1 <0>        0.02185
     24 H15         2.2038   -0.7562    0.5798 H1        1 <0>        0.02778
     25 H16         0.4410   -1.3208   -0.6769 HO        1 <0>        0.39477
@<TRIPOS>BOND
     1    1    5 1
     2    2    6 1
     3    3    7 1
     4    4    7 1
     5    5    9 1
     6    6    7 1
     7    6    8 1
     8    7    9 1
     9    1   10 1
    10    1   11 1
    11    1   12 1
    12    2   13 1
    13    2   14 1
    14    2   15 1
    15    3   16 1
    16    3   17 1
    17    3   18 1
    18    4   19 1
    19    4   20 1
    20    4   21 1
    21    5   22 1
    22    5   23 1
    23    6   24 1
    24    8   25 1
@<TRIPOS>SUBSTRUCTURE
     1 <0>         1 GROUP 0 A     ****
