@<TRIPOS>MOLECULE
AlkEthOH_c467
   21    20     1     0     0
SMALL
USER_CHARGES

@<TRIPOS>ATOM
      1 C1         -0.2765   -3.2843   -0.8538 CT        1 <0>       -0.09177
      2 C2          0.0168   -0.9791    0.0745 CT        1 <0>       -0.09177
      3 C3         -1.4042   -2.2439   -5.8343 CT        1 <0>        0.11721
      4 C4         -0.3808   -1.3238   -2.4187 CT        1 <0>       -0.07730
      5 C5         -1.1136   -2.0995   -3.5067 CT        1 <0>        0.12731
      6 C6         -0.6860   -1.8165   -0.9949 CT        1 <0>       -0.06609
      7 O1         -0.7406   -1.5710   -4.7733 OS        1 <0>       -0.42273
      8 H1          0.8000   -3.4056   -1.0148 HC        1 <0>        0.03432
      9 H2         -0.8009   -3.9152   -1.5797 HC        1 <0>        0.03432
     10 H3         -0.5068   -3.6582    0.1495 HC        1 <0>        0.03432
     11 H4          1.1046   -1.0088   -0.0494 HC        1 <0>        0.03432
     12 H5         -0.2191   -1.3525    1.0769 HC        1 <0>        0.03432
     13 H6         -0.3029    0.0666    0.0356 HC        1 <0>        0.03432
     14 H7         -1.0949   -1.8133   -6.7898 H1        1 <0>        0.03150
     15 H8         -2.4854   -2.1441   -5.7104 H1        1 <0>        0.03150
     16 H9         -1.1327   -3.3019   -5.8091 H1        1 <0>        0.03150
     17 H10         0.6985   -1.3957   -2.6079 HC        1 <0>        0.05469
     18 H11        -0.6213   -0.2567   -2.5134 HC        1 <0>        0.05469
     19 H12        -0.8430   -3.1597   -3.4801 H1        1 <0>        0.02499
     20 H13        -2.1983   -2.0026   -3.4059 H1        1 <0>        0.02499
     21 H14        -1.7682   -1.7520   -0.8249 HC        1 <0>        0.04536
@<TRIPOS>BOND
     1    1    6 1
     2    2    6 1
     3    3    7 1
     4    4    5 1
     5    4    6 1
     6    5    7 1
     7    1    8 1
     8    1    9 1
     9    1   10 1
    10    2   11 1
    11    2   12 1
    12    2   13 1
    13    3   14 1
    14    3   15 1
    15    3   16 1
    16    4   17 1
    17    4   18 1
    18    5   19 1
    19    5   20 1
    20    6   21 1
@<TRIPOS>SUBSTRUCTURE
     1 <0>         1 GROUP 0 A     ****
