@<TRIPOS>MOLECULE
AlkEthOH_c905
   21    20     1     0     0
SMALL
USER_CHARGES

@<TRIPOS>ATOM
      1 C1          3.2784    0.1292   -0.4291 CT        1 <0>       -0.09035
      2 C2          3.0270    3.7649    0.1099 CT        1 <0>       -0.08820
      3 C3          3.1424    3.4150    2.5804 CT        1 <0>       -0.08820
      4 C4          1.9819    0.8864   -0.1674 CT        1 <0>       -0.11589
      5 C5          3.1315    2.7122    1.2178 CT        1 <0>       -0.05558
      6 C6          2.0054    1.6542    1.1619 CT        1 <0>        0.14582
      7 O1          0.7471    2.2923    1.3718 OH        1 <0>       -0.59908
      8 H1          3.4711   -0.5771    0.3850 HC        1 <0>        0.03601
      9 H2          4.1341    0.8082   -0.4898 HC        1 <0>        0.03601
     10 H3          3.2198   -0.4388   -1.3629 HC        1 <0>        0.03601
     11 H4          2.0833    4.3149    0.1714 HC        1 <0>        0.03734
     12 H5          3.8480    4.4876    0.1598 HC        1 <0>        0.03734
     13 H6          3.0602    3.2900   -0.8768 HC        1 <0>        0.03734
     14 H7          2.2011    3.9496    2.7475 HC        1 <0>        0.03734
     15 H8          3.9534    4.1486    2.6325 HC        1 <0>        0.03734
     16 H9          3.2738    2.7028    3.4019 HC        1 <0>        0.03734
     17 H10         1.8137    1.5846   -0.9954 HC        1 <0>        0.04485
     18 H11         1.1647    0.1564   -0.1712 HC        1 <0>        0.04485
     19 H12         4.0936    2.1959    1.1051 HC        1 <0>        0.04527
     20 H13         2.1569    0.9449    1.9854 H1        1 <0>        0.02724
     21 H14         0.0815    1.5878    1.3923 HO        1 <0>        0.39720
@<TRIPOS>BOND
     1    1    4 1
     2    2    5 1
     3    3    5 1
     4    4    6 1
     5    5    6 1
     6    6    7 1
     7    1    8 1
     8    1    9 1
     9    1   10 1
    10    2   11 1
    11    2   12 1
    12    2   13 1
    13    3   14 1
    14    3   15 1
    15    3   16 1
    16    4   17 1
    17    4   18 1
    18    5   19 1
    19    6   20 1
    20    7   21 1
@<TRIPOS>SUBSTRUCTURE
     1 <0>         1 GROUP 0 A     ****
