@<TRIPOS>MOLECULE
AlkEthOH_c1174
   23    22     1     0     0
SMALL
USER_CHARGES

@<TRIPOS>ATOM
      1 C1         -2.0060    0.1816   -2.9841 CT        1 <0>       -0.09795
      2 C2          1.3625   -1.8566   -0.1241 CT        1 <0>       -0.12653
      3 C3         -0.3232    1.5194    0.8907 CT        1 <0>       -0.14231
      4 C4         -1.8863    0.1745   -1.4750 CT        1 <0>        0.13947
      5 C5          1.1894   -0.4579    0.4667 CT        1 <0>        0.13137
      6 C6         -0.2395    0.1095    0.2893 CT        1 <0>        0.34908
      7 O1          2.1327    0.4134   -0.1551 OH        1 <0>       -0.59212
      8 O2         -1.1181   -0.7681    0.9999 OH        1 <0>       -0.62525
      9 O3         -0.5124    0.1222   -1.1202 OS        1 <0>       -0.41126
     10 H1         -1.5019    1.0529   -3.4114 HC        1 <0>        0.04346
     11 H2         -1.5660   -0.7259   -3.4105 HC        1 <0>        0.04346
     12 H3         -3.0580    0.1981   -3.2876 HC        1 <0>        0.04346
     13 H4          1.1293   -1.8459   -1.1946 HC        1 <0>        0.05270
     14 H5          2.3854   -2.2242   -0.0008 HC        1 <0>        0.05270
     15 H6          0.6711   -2.5716    0.3343 HC        1 <0>        0.05270
     16 H7         -1.3247    1.9475    0.7800 HC        1 <0>        0.05502
     17 H8          0.4093    2.1881    0.4255 HC        1 <0>        0.05502
     18 H9         -0.0901    1.5090    1.9612 HC        1 <0>        0.05502
     19 H10        -2.3925   -0.6993   -1.0540 H1        1 <0>        0.03659
     20 H11        -2.3256    1.0822   -1.0507 H1        1 <0>        0.03659
     21 H12         1.4302   -0.5049    1.5361 H1        1 <0>        0.03019
     22 H13         3.0107    0.0522    0.0405 HO        1 <0>        0.40690
     23 H14        -0.8436   -0.7885    1.9319 HO        1 <0>        0.41169
@<TRIPOS>BOND
     1    1    4 1
     2    2    5 1
     3    3    6 1
     4    4    9 1
     5    5    6 1
     6    5    7 1
     7    6    8 1
     8    6    9 1
     9    1   10 1
    10    1   11 1
    11    1   12 1
    12    2   13 1
    13    2   14 1
    14    2   15 1
    15    3   16 1
    16    3   17 1
    17    3   18 1
    18    4   19 1
    19    4   20 1
    20    5   21 1
    21    7   22 1
    22    8   23 1
@<TRIPOS>SUBSTRUCTURE
     1 <0>         1 GROUP 0 A     ****
