@<TRIPOS>MOLECULE
AlkEthOH_c54
   21    20     1     0     0
SMALL
USER_CHARGES

@<TRIPOS>ATOM
      1 C1          2.2509    1.0388    2.2965 CT        1 <0>       -0.12773
      2 C2         -1.6241    0.3052    2.2732 CT        1 <0>       -0.08620
      3 C3         -0.1437    0.8427    4.2122 CT        1 <0>       -0.08620
      4 C4         -0.4944    2.5343    2.4133 CT        1 <0>       -0.08620
      5 C5          0.8983    0.4211    1.9487 CT        1 <0>        0.14877
      6 C6         -0.3301    1.0282    2.6910 CT        1 <0>       -0.04434
      7 O1          0.9838   -0.9867    2.1824 OH        1 <0>       -0.60238
      8 H1          2.4401    0.9406    3.3716 HC        1 <0>        0.04259
      9 H2          3.0733    0.5538    1.7647 HC        1 <0>        0.04259
     10 H3          2.2720    2.1119    2.0822 HC        1 <0>        0.04259
     11 H4         -1.8136    0.4001    1.1990 HC        1 <0>        0.03703
     12 H5         -2.4949    0.7232    2.7915 HC        1 <0>        0.03703
     13 H6         -1.5758   -0.7623    2.5156 HC        1 <0>        0.03703
     14 H7          0.7677    1.3411    4.5609 HC        1 <0>        0.03703
     15 H8         -0.0618   -0.2183    4.4752 HC        1 <0>        0.03703
     16 H9         -0.9882    1.2544    4.7756 HC        1 <0>        0.03703
     17 H10         0.4096    3.0853    2.6987 HC        1 <0>        0.03703
     18 H11        -0.6737    2.7339    1.3517 HC        1 <0>        0.03703
     19 H12        -1.3251    2.9622    2.9835 HC        1 <0>        0.03703
     20 H13         0.7468    0.5392    0.8686 H1        1 <0>        0.02666
     21 H14         1.6875   -1.3160    1.6041 HO        1 <0>        0.39658
@<TRIPOS>BOND
     1    1    5 1
     2    2    6 1
     3    3    6 1
     4    4    6 1
     5    5    6 1
     6    5    7 1
     7    1    8 1
     8    1    9 1
     9    1   10 1
    10    2   11 1
    11    2   12 1
    12    2   13 1
    13    3   14 1
    14    3   15 1
    15    3   16 1
    16    4   17 1
    17    4   18 1
    18    4   19 1
    19    5   20 1
    20    7   21 1
@<TRIPOS>SUBSTRUCTURE
     1 <0>         1 GROUP 0 A     ****
