@<TRIPOS>MOLECULE
AlkEthOH_c529
   23    22     1     0     0
SMALL
USER_CHARGES

@<TRIPOS>ATOM
      1 C1          2.6984   -1.6629    0.6330 CT        1 <0>       -0.10614
      2 C2          2.3312   -1.4041   -1.8469 CT        1 <0>       -0.10614
      3 C3          0.3969    0.9248    1.2185 CT        1 <0>       -0.11008
      4 C4         -1.6058   -0.1369    0.1735 CT        1 <0>        0.11246
      5 C5          1.9721   -0.8935   -0.4597 CT        1 <0>        0.14852
      6 C6         -0.1267    0.2159   -0.0329 CT        1 <0>        0.31500
      7 O1         -2.0941   -0.8225   -0.9765 OH        1 <0>       -0.60188
      8 O2         -0.0154    1.1237   -1.1304 OH        1 <0>       -0.61987
      9 O3          0.5706   -1.0157   -0.2648 OS        1 <0>       -0.46187
     10 H1          2.4688   -2.7318    0.5859 HC        1 <0>        0.04082
     11 H2          3.7816   -1.5329    0.5350 HC        1 <0>        0.04082
     12 H3          2.4259   -1.2894    1.6263 HC        1 <0>        0.04082
     13 H4          2.0929   -2.4668   -1.9531 HC        1 <0>        0.04082
     14 H5          3.4003   -1.2642   -2.0395 HC        1 <0>        0.04082
     15 H6          1.7962   -0.8458   -2.6230 HC        1 <0>        0.04082
     16 H7          1.4528    1.1946    1.1117 HC        1 <0>        0.05301
     17 H8          0.2751    0.2967    2.1080 HC        1 <0>        0.05301
     18 H9         -0.1636    1.8449    1.4168 HC        1 <0>        0.05301
     19 H10        -1.7363   -0.7984    1.0363 H1        1 <0>        0.06277
     20 H11        -2.2131    0.7649    0.3036 H1        1 <0>        0.06277
     21 H12         2.2221    0.1699   -0.3857 H1        1 <0>        0.05775
     22 H13        -3.0265   -1.0245   -0.8025 HO        1 <0>        0.41446
     23 H14        -0.5506    1.9090   -0.9261 HO        1 <0>        0.42830
@<TRIPOS>BOND
     1    1    5 1
     2    2    5 1
     3    3    6 1
     4    4    6 1
     5    4    7 1
     6    5    9 1
     7    6    8 1
     8    6    9 1
     9    1   10 1
    10    1   11 1
    11    1   12 1
    12    2   13 1
    13    2   14 1
    14    2   15 1
    15    3   16 1
    16    3   17 1
    17    3   18 1
    18    4   19 1
    19    4   20 1
    20    5   21 1
    21    7   22 1
    22    8   23 1
@<TRIPOS>SUBSTRUCTURE
     1 <0>         1 GROUP 0 A     ****
