@<TRIPOS>MOLECULE
AlkEthOH_c564
   29    28     1     0     0
SMALL
USER_CHARGES

@<TRIPOS>ATOM
      1 C1         -4.0338    1.4107    0.2286 CT        1 <0>       -0.10518
      2 C2         -2.7038    0.7405    2.2617 CT        1 <0>       -0.10518
      3 C3          1.7062   -1.5031   -1.5138 CT        1 <0>       -0.12622
      4 C4          1.1753   -1.2451    0.9238 CT        1 <0>       -0.12622
      5 C5          0.5406    0.5838   -0.7436 CT        1 <0>       -0.09316
      6 C6         -2.6724    1.4310    0.9067 CT        1 <0>        0.13847
      7 C7         -0.4124    1.3225    0.2087 CT        1 <0>        0.34374
      8 C8          0.7090   -0.9316   -0.4993 CT        1 <0>        0.15847
      9 O1         -0.3728    2.7031   -0.1531 OH        1 <0>       -0.63179
     10 O2         -0.5458   -1.5789   -0.7171 OH        1 <0>       -0.57439
     11 O3         -1.7245    0.7804    0.0720 OS        1 <0>       -0.38894
     12 H1         -4.3925    0.3864    0.0885 HC        1 <0>        0.04095
     13 H2         -4.7670    1.9592    0.8295 HC        1 <0>        0.04095
     14 H3         -3.9953    1.9052   -0.7483 HC        1 <0>        0.04095
     15 H4         -3.0308   -0.2997    2.1701 HC        1 <0>        0.04095
     16 H5         -3.3863    1.2635    2.9402 HC        1 <0>        0.04095
     17 H6         -1.7160    0.7568    2.7353 HC        1 <0>        0.04095
     18 H7          1.3988   -1.2941   -2.5436 HC        1 <0>        0.04274
     19 H8          1.8060   -2.5878   -1.3931 HC        1 <0>        0.04274
     20 H9          2.7070   -1.0832   -1.3602 HC        1 <0>        0.04274
     21 H10         0.4789   -0.8469    1.6693 HC        1 <0>        0.04274
     22 H11         2.1732   -0.8396    1.1187 HC        1 <0>        0.04274
     23 H12         1.2062   -2.3279    1.0931 HC        1 <0>        0.04274
     24 H13         0.1639    0.7294   -1.7662 HC        1 <0>        0.06355
     25 H14         1.5211    1.0769   -0.7065 HC        1 <0>        0.06355
     26 H15        -2.3421    2.4673    1.0322 H1        1 <0>        0.05776
     27 H16        -0.0568    1.2244    1.2409 H2        1 <0>        0.02528
     28 H17         0.5459    3.0025   -0.0474 HO        1 <0>        0.40557
     29 H18        -0.3922   -2.5253   -0.5784 HO        1 <0>        0.39255
@<TRIPOS>BOND
     1    1    6 1
     2    2    6 1
     3    3    8 1
     4    4    8 1
     5    5    7 1
     6    5    8 1
     7    6   11 1
     8    7    9 1
     9    7   11 1
    10    8   10 1
    11    1   12 1
    12    1   13 1
    13    1   14 1
    14    2   15 1
    15    2   16 1
    16    2   17 1
    17    3   18 1
    18    3   19 1
    19    3   20 1
    20    4   21 1
    21    4   22 1
    22    4   23 1
    23    5   24 1
    24    5   25 1
    25    6   26 1
    26    7   27 1
    27    9   28 1
    28   10   29 1
@<TRIPOS>SUBSTRUCTURE
     1 <0>         1 GROUP 0 A     ****
