@<TRIPOS>MOLECULE
AlkEthOH_c549
   28    27     1     0     0
SMALL
USER_CHARGES

@<TRIPOS>ATOM
      1 C1         -5.3985    1.5274   -2.0792 CT        1 <0>       -0.10896
      2 C2         -5.7513    4.0195   -1.9508 CT        1 <0>       -0.10896
      3 C3         -0.8825    0.3039    0.4723 CT        1 <0>       -0.12956
      4 C4         -1.8946    3.7055   -3.1110 CT        1 <0>       -0.11756
      5 C5         -1.4311    2.0113   -1.3010 CT        1 <0>       -0.07224
      6 C6         -4.7928    2.9003   -2.3280 CT        1 <0>        0.14030
      7 C7         -1.9563    0.8336   -0.4695 CT        1 <0>        0.13856
      8 C8         -2.4683    2.5565   -2.2917 CT        1 <0>        0.13835
      9 O1         -2.3551   -0.2157   -1.3470 OH        1 <0>       -0.60733
     10 O2         -3.6005    3.0297   -1.5678 OS        1 <0>       -0.42611
     11 H1         -5.6825    1.4028   -1.0298 HC        1 <0>        0.04280
     12 H2         -6.2883    1.3850   -2.7019 HC        1 <0>        0.04280
     13 H3         -4.6957    0.7313   -2.3490 HC        1 <0>        0.04280
     14 H4         -6.0437    3.9544   -0.8983 HC        1 <0>        0.04280
     15 H5         -6.6545    3.9722   -2.5686 HC        1 <0>        0.04280
     16 H6         -5.2998    5.0018   -2.1287 HC        1 <0>        0.04280
     17 H7          0.0092   -0.0116   -0.0779 HC        1 <0>        0.04171
     18 H8         -1.2559   -0.5454    1.0550 HC        1 <0>        0.04171
     19 H9         -0.5909    1.0753    1.1933 HC        1 <0>        0.04171
     20 H10        -1.5520    4.5113   -2.4530 HC        1 <0>        0.04038
     21 H11        -1.0222    3.3788   -3.6878 HC        1 <0>        0.04038
     22 H12        -2.6398    4.1135   -3.8005 HC        1 <0>        0.04038
     23 H13        -1.1259    2.8133   -0.6171 HC        1 <0>        0.05556
     24 H14        -0.5445    1.6922   -1.8635 HC        1 <0>        0.05556
     25 H15        -4.5199    2.9933   -3.3843 H1        1 <0>        0.03435
     26 H16        -2.8323    1.1397    0.1129 H1        1 <0>        0.04876
     27 H17        -2.8051    1.7614   -2.9658 H1        1 <0>        0.05805
     28 H18        -2.6999   -0.9285   -0.7871 HO        1 <0>        0.39816
@<TRIPOS>BOND
     1    1    6 1
     2    2    6 1
     3    3    7 1
     4    4    8 1
     5    5    7 1
     6    5    8 1
     7    6   10 1
     8    7    9 1
     9    8   10 1
    10    1   11 1
    11    1   12 1
    12    1   13 1
    13    2   14 1
    14    2   15 1
    15    2   16 1
    16    3   17 1
    17    3   18 1
    18    3   19 1
    19    4   20 1
    20    4   21 1
    21    4   22 1
    22    5   23 1
    23    5   24 1
    24    6   25 1
    25    7   26 1
    26    8   27 1
    27    9   28 1
@<TRIPOS>SUBSTRUCTURE
     1 <0>         1 GROUP 0 A     ****
