@<TRIPOS>MOLECULE
AlkEthOH_c1094
   25    24     1     0     0
SMALL
USER_CHARGES

@<TRIPOS>ATOM
      1 C1         -0.4474    0.8277   -0.8199 CT        1 <0>       -0.09133
      2 C2         -0.6714   -2.8371   -4.2817 CT        1 <0>       -0.12204
      3 C3         -0.1275    0.5176   -7.0266 CT        1 <0>       -0.12461
      4 C4          0.0366    0.3647   -2.1852 CT        1 <0>       -0.07997
      5 C5         -0.5207   -1.0174   -2.5371 CT        1 <0>       -0.07208
      6 C6         -0.0767   -1.4806   -3.9284 CT        1 <0>        0.14172
      7 C7          0.4113   -0.4923   -6.0247 CT        1 <0>        0.33556
      8 O1          1.7354   -0.1319   -5.6429 OH        1 <0>       -0.63042
      9 O2         -0.4824   -0.5335   -4.9130 OS        1 <0>       -0.41419
     10 H1         -0.1532    0.1080   -0.0495 HC        1 <0>        0.03024
     11 H2         -1.5380    0.9192   -0.8004 HC        1 <0>        0.03024
     12 H3         -0.0159    1.7995   -0.5597 HC        1 <0>        0.03024
     13 H4         -1.7663   -2.8070   -4.2517 HC        1 <0>        0.03985
     14 H5         -0.3926   -3.1214   -5.3021 HC        1 <0>        0.03985
     15 H6         -0.3234   -3.6149   -3.5951 HC        1 <0>        0.03985
     16 H7         -0.1808    1.5169   -6.5831 HC        1 <0>        0.05304
     17 H8          0.5295    0.5847   -7.9010 HC        1 <0>        0.05304
     18 H9         -1.1203    0.2252   -7.3824 HC        1 <0>        0.05304
     19 H10        -0.2689    1.0993   -2.9388 HC        1 <0>        0.05015
     20 H11         1.1324    0.3343   -2.1862 HC        1 <0>        0.05015
     21 H12        -0.1919   -1.7458   -1.7860 HC        1 <0>        0.04428
     22 H13        -1.6164   -0.9734   -2.4955 HC        1 <0>        0.04428
     23 H14         1.0160   -1.5470   -3.9681 H1        1 <0>        0.06244
     24 H15         0.4513   -1.4790   -6.5001 H2        1 <0>        0.02753
     25 H16         2.2914   -0.1267   -6.4399 HO        1 <0>        0.40914
@<TRIPOS>BOND
     1    1    4 1
     2    2    6 1
     3    3    7 1
     4    4    5 1
     5    5    6 1
     6    6    9 1
     7    7    8 1
     8    7    9 1
     9    1   10 1
    10    1   11 1
    11    1   12 1
    12    2   13 1
    13    2   14 1
    14    2   15 1
    15    3   16 1
    16    3   17 1
    17    3   18 1
    18    4   19 1
    19    4   20 1
    20    5   21 1
    21    5   22 1
    22    6   23 1
    23    7   24 1
    24    8   25 1
@<TRIPOS>SUBSTRUCTURE
     1 <0>         1 GROUP 0 A     ****
