@<TRIPOS>MOLECULE
AlkEthOH_c1102
   25    24     1     0     0
SMALL
USER_CHARGES

@<TRIPOS>ATOM
      1 C1          1.3072    1.6960   -1.7062 CT        1 <0>       -0.09254
      2 C2         -1.0940    2.7913    4.6850 CT        1 <0>       -0.12933
      3 C3          1.2994    1.7256   -0.1858 CT        1 <0>       -0.08035
      4 C4          0.3038    2.7329    0.4014 CT        1 <0>       -0.11133
      5 C5         -0.6679    3.8926    2.4195 CT        1 <0>       -0.11152
      6 C6         -0.7407    4.0723    3.9413 CT        1 <0>        0.14511
      7 C7          0.3371    2.8397    1.9328 CT        1 <0>        0.13817
      8 O1         -1.7524    5.0454    4.2082 OH        1 <0>       -0.60838
      9 O2          1.6539    3.2038    2.3346 OH        1 <0>       -0.59708
     10 H1          1.5114    2.6969   -2.1001 HC        1 <0>        0.03292
     11 H2          0.3391    1.3689   -2.0982 HC        1 <0>        0.03292
     12 H3          2.0819    1.0261   -2.0905 HC        1 <0>        0.03292
     13 H4         -2.0343    2.3608    4.3300 HC        1 <0>        0.04377
     14 H5         -1.1736    2.9740    5.7622 HC        1 <0>        0.04377
     15 H6         -0.3062    2.0417    4.5523 HC        1 <0>        0.04377
     16 H7          1.0944    0.7197    0.1978 HC        1 <0>        0.04671
     17 H8          2.3048    1.9934    0.1614 HC        1 <0>        0.04671
     18 H9         -0.7098    2.4749    0.0710 HC        1 <0>        0.04572
     19 H10         0.5426    3.7136   -0.0302 HC        1 <0>        0.04572
     20 H11        -0.4088    4.8683    1.9856 HC        1 <0>        0.05842
     21 H12        -1.6688    3.6550    2.0355 HC        1 <0>        0.05842
     22 H13         0.2041    4.4761    4.3206 H1        1 <0>        0.04182
     23 H14         0.1010    1.8649    2.3700 H1        1 <0>        0.07617
     24 H15        -1.7535    5.1814    5.1673 HO        1 <0>        0.39989
     25 H16         1.8445    4.0589    1.9179 HO        1 <0>        0.39760
@<TRIPOS>BOND
     1    1    3 1
     2    2    6 1
     3    3    4 1
     4    4    7 1
     5    5    6 1
     6    5    7 1
     7    6    8 1
     8    7    9 1
     9    1   10 1
    10    1   11 1
    11    1   12 1
    12    2   13 1
    13    2   14 1
    14    2   15 1
    15    3   16 1
    16    3   17 1
    17    4   18 1
    18    4   19 1
    19    5   20 1
    20    5   21 1
    21    6   22 1
    22    7   23 1
    23    8   24 1
    24    9   25 1
@<TRIPOS>SUBSTRUCTURE
     1 <0>         1 GROUP 0 A     ****
