@<TRIPOS>MOLECULE
AlkEthOH_c105
   20    19     1     0     0
SMALL
USER_CHARGES

@<TRIPOS>ATOM
      1 C1         -0.9553    0.4818   -0.2077 CT        1 <0>       -0.13137
      2 C2         -0.3490    1.5118   -3.9233 CT        1 <0>       -0.12160
      3 C3          1.3678    3.1926   -2.0905 CT        1 <0>        0.32900
      4 C4         -1.2082    0.6003   -1.7062 CT        1 <0>        0.14844
      5 C5         -0.0897    1.3641   -2.4285 CT        1 <0>        0.15080
      6 O1          1.5804    4.4420   -1.4492 OH        1 <0>       -0.58100
      7 O2         -2.4504    1.2717   -1.9070 OH        1 <0>       -0.58648
      8 O3          0.0656    2.6662   -1.8674 OS        1 <0>       -0.39314
      9 H1         -0.8584    1.4672    0.2604 HC        1 <0>        0.04928
     10 H2         -0.0508   -0.0987   -0.0023 HC        1 <0>        0.04928
     11 H3         -1.8018   -0.0117    0.2823 HC        1 <0>        0.04928
     12 H4         -1.2912    2.0347   -4.1123 HC        1 <0>        0.04872
     13 H5          0.4621    2.0550   -4.4201 HC        1 <0>        0.04872
     14 H6         -0.3970    0.5255   -4.3979 HC        1 <0>        0.04872
     15 H7          1.5878    3.2744   -3.1613 H2        1 <0>        0.01187
     16 H8          2.0783    2.4819   -1.6588 H2        1 <0>        0.01187
     17 H9         -1.2996   -0.4020   -2.1404 H1        1 <0>        0.02884
     18 H10         0.8600    0.8372   -2.2840 H1        1 <0>        0.03131
     19 H11         2.4884    4.7209   -1.6562 HO        1 <0>        0.40664
     20 H12        -3.1291    0.7293   -1.4768 HO        1 <0>        0.40082
@<TRIPOS>BOND
     1    1    4 1
     2    2    5 1
     3    3    6 1
     4    3    8 1
     5    4    5 1
     6    4    7 1
     7    5    8 1
     8    1    9 1
     9    1   10 1
    10    1   11 1
    11    2   12 1
    12    2   13 1
    13    2   14 1
    14    3   15 1
    15    3   16 1
    16    4   17 1
    17    5   18 1
    18    6   19 1
    19    7   20 1
@<TRIPOS>SUBSTRUCTURE
     1 <0>         1 GROUP 0 A     ****
