@<TRIPOS>MOLECULE
AlkEthOH_c1071
   29    28     1     0     0
SMALL
USER_CHARGES

@<TRIPOS>ATOM
      1 C1         -0.1261   -0.7683   -3.6115 CT        1 <0>       -0.09271
      2 C2         -0.0943   -1.7868    0.7567 CT        1 <0>       -0.09115
      3 C3         -0.4462    0.5673    2.7050 CT        1 <0>       -0.08734
      4 C4          1.6531    0.7286    1.3577 CT        1 <0>       -0.08734
      5 C5         -0.2928    2.1582    0.7837 CT        1 <0>       -0.08734
      6 C6         -0.5992   -1.0695   -2.1965 CT        1 <0>       -0.08088
      7 C7          0.0824   -0.1528   -1.1729 CT        1 <0>       -0.07735
      8 C8         -0.4130   -0.3571    0.2840 CT        1 <0>       -0.04938
      9 C9          0.1098    0.7507    1.2803 CT        1 <0>       -0.05083
     10 H1          0.9594   -0.8906   -3.6818 HC        1 <0>        0.03215
     11 H2         -0.5909   -1.4463   -4.3344 HC        1 <0>        0.03215
     12 H3         -0.3717    0.2599   -3.8961 HC        1 <0>        0.03215
     13 H4          0.9862   -1.9539    0.8044 HC        1 <0>        0.03406
     14 H5         -0.5054   -1.9829    1.7515 HC        1 <0>        0.03406
     15 H6         -0.4801   -2.5433    0.0692 HC        1 <0>        0.03406
     16 H7         -1.5426    0.5764    2.7002 HC        1 <0>        0.03364
     17 H8         -0.1340   -0.3862    3.1427 HC        1 <0>        0.03364
     18 H9         -0.1212    1.3702    3.3742 HC        1 <0>        0.03364
     19 H10         2.1013    0.8559    0.3650 HC        1 <0>        0.03364
     20 H11         2.0141   -0.2230    1.7632 HC        1 <0>        0.03364
     21 H12         2.0459    1.5380    1.9810 HC        1 <0>        0.03364
     22 H13         0.0798    2.3416   -0.2312 HC        1 <0>        0.03364
     23 H14        -1.3822    2.2717    0.7607 HC        1 <0>        0.03364
     24 H15         0.1212    2.9512    1.4142 HC        1 <0>        0.03364
     25 H16        -1.6865   -0.9415   -2.1471 HC        1 <0>        0.03818
     26 H17        -0.3792   -2.1193   -1.9780 HC        1 <0>        0.03818
     27 H18         1.1660   -0.3103   -1.2265 HC        1 <0>        0.04115
     28 H19        -0.1055    0.8797   -1.4837 HC        1 <0>        0.04115
     29 H20        -1.5092   -0.2720    0.2637 HC        1 <0>        0.04427
@<TRIPOS>BOND
     1    1    6 1
     2    2    8 1
     3    3    9 1
     4    4    9 1
     5    5    9 1
     6    6    7 1
     7    7    8 1
     8    8    9 1
     9    1   10 1
    10    1   11 1
    11    1   12 1
    12    2   13 1
    13    2   14 1
    14    2   15 1
    15    3   16 1
    16    3   17 1
    17    3   18 1
    18    4   19 1
    19    4   20 1
    20    4   21 1
    21    5   22 1
    22    5   23 1
    23    5   24 1
    24    6   25 1
    25    6   26 1
    26    7   27 1
    27    7   28 1
    28    8   29 1
@<TRIPOS>SUBSTRUCTURE
     1 <0>         1 GROUP 0 A     ****
