@<TRIPOS>MOLECULE
AlkEthOH_c335
   22    21     1     0     0
SMALL
USER_CHARGES

@<TRIPOS>ATOM
      1 C1          0.2807    0.8790   -0.7444 CT        1 <0>       -0.08938
      2 C2         -0.4068    3.2163   -1.3080 CT        1 <0>       -0.08938
      3 C3         -0.0192    1.6440    2.2492 CT        1 <0>       -0.12305
      4 C4          0.1854    4.6487    2.3419 CT        1 <0>        0.32808
      5 C5         -0.4527    2.1211   -0.2344 CT        1 <0>       -0.06123
      6 C6          0.1204    2.6388    1.1017 CT        1 <0>        0.14326
      7 O1          1.3661    5.1584    1.7390 OH        1 <0>       -0.62952
      8 O2         -0.5788    3.8302    1.4669 OS        1 <0>       -0.41558
      9 H1          1.3438    1.0859   -0.9074 HC        1 <0>        0.03667
     10 H2          0.1973    0.0480   -0.0376 HC        1 <0>        0.03667
     11 H3         -0.1462    0.5370   -1.6936 HC        1 <0>        0.03667
     12 H4          0.6219    3.5300   -1.5136 HC        1 <0>        0.03667
     13 H5         -0.9595    4.1039   -0.9810 HC        1 <0>        0.03667
     14 H6         -0.8508    2.8684   -2.2469 HC        1 <0>        0.03667
     15 H7         -1.0600    1.3510    2.4113 HC        1 <0>        0.04067
     16 H8          0.5584    0.7363    2.0424 HC        1 <0>        0.04067
     17 H9          0.3791    2.0634    3.1795 HC        1 <0>        0.04067
     18 H10         0.4320    4.1213    3.2708 H2        1 <0>        0.03473
     19 H11        -0.4411    5.5063    2.6033 H2        1 <0>        0.03473
     20 H12        -1.5100    1.8637   -0.0871 HC        1 <0>        0.05484
     21 H13         1.1771    2.9031    0.9762 H1        1 <0>        0.06163
     22 H14         1.8189    5.7009    2.4066 HO        1 <0>        0.40884
@<TRIPOS>BOND
     1    1    5 1
     2    2    5 1
     3    3    6 1
     4    4    7 1
     5    4    8 1
     6    5    6 1
     7    6    8 1
     8    1    9 1
     9    1   10 1
    10    1   11 1
    11    2   12 1
    12    2   13 1
    13    2   14 1
    14    3   15 1
    15    3   16 1
    16    3   17 1
    17    4   18 1
    18    4   19 1
    19    5   20 1
    20    6   21 1
    21    7   22 1
@<TRIPOS>SUBSTRUCTURE
     1 <0>         1 GROUP 0 A     ****
