@<TRIPOS>MOLECULE
AlkEthOH_c532
   23    22     1     0     0
SMALL
USER_CHARGES

@<TRIPOS>ATOM
      1 C1         -0.3606    1.7288    2.6165 CT        1 <0>       -0.10771
      2 C2          1.4804    0.0220    2.8388 CT        1 <0>       -0.10771
      3 C3          1.3325   -0.8319   -0.6670 CT        1 <0>       -0.11681
      4 C4         -2.2893   -0.2455   -0.8104 CT        1 <0>        0.13313
      5 C5          0.5852    0.7923    1.8802 CT        1 <0>        0.15613
      6 C6          0.0470   -0.0730   -0.3097 CT        1 <0>        0.52902
      7 O1          0.1415    1.2686   -0.8003 OH        1 <0>       -0.64554
      8 O2         -0.9914   -0.7917   -1.0081 OS        1 <0>       -0.44987
      9 O3         -0.1742   -0.1271    1.1086 OS        1 <0>       -0.43609
     10 H1         -0.9948    1.1805    3.3197 HC        1 <0>        0.04320
     11 H2          0.2065    2.4836    3.1718 HC        1 <0>        0.04320
     12 H3         -1.0033    2.2720    1.9150 HC        1 <0>        0.04320
     13 H4          0.8901   -0.5669    3.5474 HC        1 <0>        0.04320
     14 H5          2.1177    0.7118    3.4026 HC        1 <0>        0.04320
     15 H6          2.1511   -0.6528    2.2956 HC        1 <0>        0.04320
     16 H7          1.3105   -1.8672   -0.3124 HC        1 <0>        0.06022
     17 H8          2.2055   -0.3532   -0.2081 HC        1 <0>        0.06022
     18 H9          1.4886   -0.8462   -1.7512 HC        1 <0>        0.06022
     19 H10        -3.0224   -0.8361   -1.3652 H1        1 <0>        0.04105
     20 H11        -2.3054    0.7917   -1.1546 H1        1 <0>        0.04105
     21 H12        -2.5299   -0.2775    0.2549 H1        1 <0>        0.04105
     22 H13         1.2044    1.3699    1.1861 H1        1 <0>        0.05813
     23 H14         0.2538    1.2481   -1.7650 HO        1 <0>        0.42431
@<TRIPOS>BOND
     1    1    5 1
     2    2    5 1
     3    3    6 1
     4    4    8 1
     5    5    9 1
     6    6    7 1
     7    6    8 1
     8    6    9 1
     9    1   10 1
    10    1   11 1
    11    1   12 1
    12    2   13 1
    13    2   14 1
    14    2   15 1
    15    3   16 1
    16    3   17 1
    17    3   18 1
    18    4   19 1
    19    4   20 1
    20    4   21 1
    21    5   22 1
    22    7   23 1
@<TRIPOS>SUBSTRUCTURE
     1 <0>         1 GROUP 0 A     ****
