@<TRIPOS>MOLECULE
AlkEthOH_c1145
   24    23     1     0     0
SMALL
USER_CHARGES

@<TRIPOS>ATOM
      1 C1         -2.8966   -2.4819    4.7892 CT        1 <0>       -0.09365
      2 C2         -0.4645   -0.0646    0.9894 CT        1 <0>       -0.10797
      3 C3          1.6273    0.6910    2.1567 CT        1 <0>       -0.10797
      4 C4          1.2036   -1.7604    1.8118 CT        1 <0>       -0.10797
      5 C5         -1.8007   -1.4349    4.7026 CT        1 <0>       -0.08438
      6 C6         -1.1266   -1.4328    3.3392 CT        1 <0>        0.12763
      7 C7          0.5609   -0.3988    2.0719 CT        1 <0>        0.15145
      8 O1         -0.1082   -0.4451    3.3327 OS        1 <0>       -0.42041
      9 H1         -3.6555   -2.3198    4.0171 HC        1 <0>        0.03419
     10 H2         -2.4773   -3.4830    4.6481 HC        1 <0>        0.03419
     11 H3         -3.3889   -2.4546    5.7664 HC        1 <0>        0.03419
     12 H4         -1.2317   -0.8445    0.9253 HC        1 <0>        0.04284
     13 H5         -0.9578    0.8935    1.1830 HC        1 <0>        0.04284
     14 H6          0.0103   -0.0162    0.0027 HC        1 <0>        0.04284
     15 H7          2.3651    0.4554    2.9322 HC        1 <0>        0.04284
     16 H8          1.1816    1.6524    2.4367 HC        1 <0>        0.04284
     17 H9          2.1531    0.8168    1.2047 HC        1 <0>        0.04284
     18 H10         1.9391   -2.0003    2.5882 HC        1 <0>        0.04284
     19 H11         0.4566   -2.5604    1.7845 HC        1 <0>        0.04284
     20 H12         1.7476   -1.7592    0.8603 HC        1 <0>        0.04284
     21 H13        -1.0517   -1.6147    5.4832 HC        1 <0>        0.05288
     22 H14        -2.2174   -0.4417    4.9086 HC        1 <0>        0.05288
     23 H15        -0.6704   -2.4051    3.1272 H1        1 <0>        0.02469
     24 H16        -1.8456   -1.1969    2.5482 H1        1 <0>        0.02469
@<TRIPOS>BOND
     1    1    5 1
     2    2    7 1
     3    3    7 1
     4    4    7 1
     5    5    6 1
     6    6    8 1
     7    7    8 1
     8    1    9 1
     9    1   10 1
    10    1   11 1
    11    2   12 1
    12    2   13 1
    13    2   14 1
    14    3   15 1
    15    3   16 1
    16    3   17 1
    17    4   18 1
    18    4   19 1
    19    4   20 1
    20    5   21 1
    21    5   22 1
    22    6   23 1
    23    6   24 1
@<TRIPOS>SUBSTRUCTURE
     1 <0>         1 GROUP 0 A     ****
