@<TRIPOS>MOLECULE
AlkEthOH_c936
   27    26     1     0     0
SMALL
USER_CHARGES

@<TRIPOS>ATOM
      1 C1         -1.3373    2.2412   -0.4859 CT        1 <0>       -0.09151
      2 C2         -2.0781   -1.7485    2.1922 CT        1 <0>       -0.10551
      3 C3         -2.3863   -3.1631    0.1293 CT        1 <0>       -0.10551
      4 C4         -2.1689   -0.4444   -1.7717 CT        1 <0>       -0.10143
      5 C5         -4.0814    0.9472   -0.9518 CT        1 <0>       -0.10143
      6 C6         -1.8896    1.0450    0.2809 CT        1 <0>       -0.10278
      7 C7         -2.1862   -1.7574    0.6750 CT        1 <0>        0.13531
      8 C8         -2.8429    0.1483   -0.5334 CT        1 <0>        0.15392
      9 O1         -3.2783   -0.9433    0.2800 OS        1 <0>       -0.42439
     10 H1         -0.8282    1.8994   -1.3931 HC        1 <0>        0.03435
     11 H2         -0.6079    2.7970    0.1102 HC        1 <0>        0.03435
     12 H3         -2.1352    2.9265   -0.7878 HC        1 <0>        0.03435
     13 H4         -2.9712   -2.1777    2.6565 HC        1 <0>        0.04106
     14 H5         -1.2044   -2.3245    2.5153 HC        1 <0>        0.04106
     15 H6         -1.9408   -0.7299    2.5719 HC        1 <0>        0.04106
     16 H7         -3.2866   -3.6260    0.5444 HC        1 <0>        0.04106
     17 H8         -1.5243   -3.7930    0.3737 HC        1 <0>        0.04106
     18 H9         -2.4691   -3.1536   -0.9632 HC        1 <0>        0.04106
     19 H10        -1.2780   -1.0231   -1.5075 HC        1 <0>        0.04318
     20 H11        -2.8545   -1.0891   -2.3317 HC        1 <0>        0.04318
     21 H12        -1.8702    0.3487   -2.4675 HC        1 <0>        0.04318
     22 H13        -4.5890    1.3863   -0.0869 HC        1 <0>        0.04318
     23 H14        -3.8108    1.7535   -1.6432 HC        1 <0>        0.04318
     24 H15        -4.7957    0.3107   -1.4865 HC        1 <0>        0.04318
     25 H16        -2.3953    1.4055    1.1851 HC        1 <0>        0.04718
     26 H17        -1.0305    0.4468    0.6116 HC        1 <0>        0.04718
     27 H18        -1.2796   -1.3227    0.2415 H1        1 <0>        0.04048
@<TRIPOS>BOND
     1    1    6 1
     2    2    7 1
     3    3    7 1
     4    4    8 1
     5    5    8 1
     6    6    8 1
     7    7    9 1
     8    8    9 1
     9    1   10 1
    10    1   11 1
    11    1   12 1
    12    2   13 1
    13    2   14 1
    14    2   15 1
    15    3   16 1
    16    3   17 1
    17    3   18 1
    18    4   19 1
    19    4   20 1
    20    4   21 1
    21    5   22 1
    22    5   23 1
    23    5   24 1
    24    6   25 1
    25    6   26 1
    26    7   27 1
@<TRIPOS>SUBSTRUCTURE
     1 <0>         1 GROUP 0 A     ****
