@<TRIPOS>MOLECULE
AlkEthOH_c1217
   24    23     1     0     0
SMALL
USER_CHARGES

@<TRIPOS>ATOM
      1 C1          1.2541   -0.9225    3.8973 CT        1 <0>       -0.09844
      2 C2         -0.2607   -1.3595   -2.3794 CT        1 <0>       -0.13126
      3 C3         -1.7838    0.7564    0.6912 CT        1 <0>       -0.11718
      4 C4          1.2011   -0.4360    2.4648 CT        1 <0>        0.13877
      5 C5          0.1908   -0.2103   -1.4924 CT        1 <0>        0.35302
      6 C6         -0.2908    0.4184    0.8006 CT        1 <0>        0.53193
      7 O1          1.5576    0.0474   -1.7968 OH        1 <0>       -0.59812
      8 O2          0.4775    1.6089    0.6030 OH        1 <0>       -0.63741
      9 O3         -0.1345   -0.0620    2.1517 OS        1 <0>       -0.45155
     10 O4          0.0117   -0.6251   -0.1397 OS        1 <0>       -0.41994
     11 H1          0.9410   -0.1352    4.5886 HC        1 <0>        0.04318
     12 H2          0.6032   -1.7923    4.0339 HC        1 <0>        0.04318
     13 H3          2.2688   -1.2400    4.1597 HC        1 <0>        0.04318
     14 H4          0.3196   -2.2646   -2.1656 HC        1 <0>        0.05213
     15 H5         -1.3148   -1.5975   -2.2050 HC        1 <0>        0.05213
     16 H6         -0.1147   -1.1195   -3.4374 HC        1 <0>        0.05213
     17 H7         -2.4176   -0.1237    0.8352 HC        1 <0>        0.05977
     18 H8         -2.0175    1.1669   -0.2978 HC        1 <0>        0.05977
     19 H9         -2.0698    1.5029    1.4403 HC        1 <0>        0.05977
     20 H10         1.5154   -1.2281    1.7786 H1        1 <0>        0.04916
     21 H11         1.8514    0.4336    2.3303 H1        1 <0>        0.04916
     22 H12        -0.4063    0.6758   -1.7299 H2        1 <0>        0.03770
     23 H13         1.6002    0.2829   -2.7390 HO        1 <0>        0.40355
     24 H14         0.2376    2.2597    1.2831 HO        1 <0>        0.42537
@<TRIPOS>BOND
     1    1    4 1
     2    2    5 1
     3    3    6 1
     4    4    9 1
     5    5    7 1
     6    5   10 1
     7    6    8 1
     8    6    9 1
     9    6   10 1
    10    1   11 1
    11    1   12 1
    12    1   13 1
    13    2   14 1
    14    2   15 1
    15    2   16 1
    16    3   17 1
    17    3   18 1
    18    3   19 1
    19    4   20 1
    20    4   21 1
    21    5   22 1
    22    7   23 1
    23    8   24 1
@<TRIPOS>SUBSTRUCTURE
     1 <0>         1 GROUP 0 A     ****
