@<TRIPOS>MOLECULE
AlkEthOH_c268
   27    26     1     0     0
SMALL
USER_CHARGES

@<TRIPOS>ATOM
      1 C1         -1.1035    1.7839   -1.6350 CT        1 <0>       -0.09045
      2 C2         -0.8369    1.9636    0.8259 CT        1 <0>       -0.09045
      3 C3          1.9567   -0.5083    0.9653 CT        1 <0>       -0.09045
      4 C4          0.2707   -2.3410    1.1801 CT        1 <0>       -0.09045
      5 C5          0.2894   -0.9176   -1.6141 CT        1 <0>       -0.08708
      6 C6         -0.2951    1.2664   -0.4323 CT        1 <0>       -0.09021
      7 C7          0.4592   -0.8323    0.9471 CT        1 <0>       -0.09021
      8 C8         -0.2874   -0.3013   -0.3261 CT        1 <0>        0.16225
      9 O1         -1.6491   -0.7549   -0.2566 OH        1 <0>       -0.59862
     10 H1         -2.1524    1.4759   -1.5576 HC        1 <0>        0.03658
     11 H2         -1.1026    2.8763   -1.6809 HC        1 <0>        0.03658
     12 H3         -0.7128    1.3970   -2.5816 HC        1 <0>        0.03658
     13 H4         -1.8712    1.6579    1.0207 HC        1 <0>        0.03658
     14 H5         -0.8509    3.0510    0.7126 HC        1 <0>        0.03658
     15 H6         -0.2470    1.7150    1.7136 HC        1 <0>        0.03658
     16 H7          2.4780   -0.9514    0.1124 HC        1 <0>        0.03658
     17 H8          2.4362   -0.8626    1.8830 HC        1 <0>        0.03658
     18 H9          2.1146    0.5746    0.9090 HC        1 <0>        0.03658
     19 H10         0.6896   -2.9307    0.3590 HC        1 <0>        0.03658
     20 H11         0.7321   -2.6718    2.1155 HC        1 <0>        0.03658
     21 H12        -0.7963   -2.5835    1.2429 HC        1 <0>        0.03658
     22 H13         0.3047   -2.0115   -1.5632 HC        1 <0>        0.04513
     23 H14         1.3366   -0.6368   -1.7635 HC        1 <0>        0.04513
     24 H15        -0.2802   -0.6208   -2.4998 HC        1 <0>        0.04513
     25 H16         0.7375    1.6096   -0.5754 HC        1 <0>        0.04698
     26 H17         0.0042   -0.3584    1.8262 HC        1 <0>        0.04698
     27 H18        -2.0152   -0.3702    0.5509 HO        1 <0>        0.39736
@<TRIPOS>BOND
     1    1    6 1
     2    2    6 1
     3    3    7 1
     4    4    7 1
     5    5    8 1
     6    6    8 1
     7    7    8 1
     8    8    9 1
     9    1   10 1
    10    1   11 1
    11    1   12 1
    12    2   13 1
    13    2   14 1
    14    2   15 1
    15    3   16 1
    16    3   17 1
    17    3   18 1
    18    4   19 1
    19    4   20 1
    20    4   21 1
    21    5   22 1
    22    5   23 1
    23    5   24 1
    24    6   25 1
    25    7   26 1
    26    9   27 1
@<TRIPOS>SUBSTRUCTURE
     1 <0>         1 GROUP 0 A     ****
