@<TRIPOS>MOLECULE
AlkEthOH_c515
   25    24     1     0     0
SMALL
USER_CHARGES

@<TRIPOS>ATOM
      1 C1          3.6323   -1.7688   -3.0146 CT        1 <0>       -0.10547
      2 C2          2.5869    0.4095   -3.7315 CT        1 <0>       -0.10547
      3 C3          0.8744   -0.5011    0.4304 CT        1 <0>       -0.10830
      4 C4          2.2795    1.3868   -0.3616 CT        1 <0>       -0.10830
      5 C5          3.1860   -1.9356    0.9027 CT        1 <0>        0.12279
      6 C6          3.0675   -0.4320   -2.5590 CT        1 <0>        0.14521
      7 C7          2.1510   -0.1426   -0.3425 CT        1 <0>        0.34172
      8 O1          3.3175   -0.6412    0.3318 OS        1 <0>       -0.44880
      9 O2          1.9818   -0.6610   -1.6715 OS        1 <0>       -0.44858
     10 H1          2.8884   -2.3444   -3.5737 HC        1 <0>        0.04027
     11 H2          4.5082   -1.6144   -3.6539 HC        1 <0>        0.04027
     12 H3          3.9685   -2.3668   -2.1603 HC        1 <0>        0.04027
     13 H4          1.8181   -0.1142   -4.3077 HC        1 <0>        0.04027
     14 H5          3.4229    0.6470   -4.3981 HC        1 <0>        0.04027
     15 H6          2.1769    1.3658   -3.3884 HC        1 <0>        0.04027
     16 H7          0.7263   -1.5849    0.4791 HC        1 <0>        0.05237
     17 H8          0.9039   -0.0964    1.4483 HC        1 <0>        0.05237
     18 H9         -0.0117   -0.0653   -0.0449 HC        1 <0>        0.05237
     19 H10         3.1764    1.7069   -0.9019 HC        1 <0>        0.05237
     20 H11         1.3990    1.8500   -0.8209 HC        1 <0>        0.05237
     21 H12         2.3411    1.7915    0.6548 HC        1 <0>        0.05237
     22 H13         4.1236   -2.2176    1.3879 H1        1 <0>        0.03452
     23 H14         2.9371   -2.6565    0.1199 H1        1 <0>        0.03452
     24 H15         2.3853   -1.9166    1.6458 H1        1 <0>        0.03452
     25 H16         3.8341    0.1186   -2.0040 H1        1 <0>        0.05580
@<TRIPOS>BOND
     1    1    6 1
     2    2    6 1
     3    3    7 1
     4    4    7 1
     5    5    8 1
     6    6    9 1
     7    7    8 1
     8    7    9 1
     9    1   10 1
    10    1   11 1
    11    1   12 1
    12    2   13 1
    13    2   14 1
    14    2   15 1
    15    3   16 1
    16    3   17 1
    17    3   18 1
    18    4   19 1
    19    4   20 1
    20    4   21 1
    21    5   22 1
    22    5   23 1
    23    5   24 1
    24    6   25 1
@<TRIPOS>SUBSTRUCTURE
     1 <0>         1 GROUP 0 A     ****
