@<TRIPOS>MOLECULE
AlkEthOH_c559
   28    27     1     0     0
SMALL
USER_CHARGES

@<TRIPOS>ATOM
      1 C1         -0.2936    1.3446   -4.0219 CT        1 <0>       -0.10790
      2 C2         -2.1578    1.8696   -2.4092 CT        1 <0>       -0.10790
      3 C3          1.6110   -2.5045   -4.1842 CT        1 <0>       -0.10790
      4 C4         -0.5984   -3.7155   -4.2461 CT        1 <0>       -0.10790
      5 C5         -0.0326   -1.0089   -0.4213 CT        1 <0>       -0.10634
      6 C6         -0.8610    1.1061   -2.6309 CT        1 <0>        0.14149
      7 C7          0.1422   -2.4674   -3.7905 CT        1 <0>        0.14149
      8 C8          0.0350   -0.9855   -1.9430 CT        1 <0>        0.33247
      9 O1         -1.1004   -0.2838   -2.4553 OS        1 <0>       -0.43067
     10 O2          0.0393   -2.3517   -2.3774 OS        1 <0>       -0.43067
     11 H1         -1.0071    1.0504   -4.7976 HC        1 <0>        0.04263
     12 H2         -0.0469    2.4032   -4.1564 HC        1 <0>        0.04263
     13 H3          0.6362    0.7842   -4.1701 HC        1 <0>        0.04263
     14 H4         -2.9157    1.5879   -3.1465 HC        1 <0>        0.04263
     15 H5         -1.9823    2.9482   -2.4821 HC        1 <0>        0.04263
     16 H6         -2.5583    1.6833   -1.4065 HC        1 <0>        0.04263
     17 H7          2.1133   -3.3801   -3.7619 HC        1 <0>        0.04263
     18 H8          1.7126   -2.5343   -5.2743 HC        1 <0>        0.04263
     19 H9          2.1333   -1.6032   -3.8445 HC        1 <0>        0.04263
     20 H10        -0.1487   -4.6201   -3.8254 HC        1 <0>        0.04263
     21 H11        -0.5810   -3.7915   -5.3386 HC        1 <0>        0.04263
     22 H12        -1.6526   -3.6782   -3.9503 HC        1 <0>        0.04263
     23 H13        -0.9633   -1.4805   -0.0861 HC        1 <0>        0.05196
     24 H14        -0.0085    0.0004   -0.0004 HC        1 <0>        0.05196
     25 H15         0.7968   -1.5881   -0.0030 HC        1 <0>        0.05196
     26 H16        -0.1251    1.4096   -1.8791 H1        1 <0>        0.04312
     27 H17        -0.3309   -1.5819   -4.2274 H1        1 <0>        0.04312
     28 H18         0.9718   -0.5106   -2.2632 H2        1 <0>        0.03015
@<TRIPOS>BOND
     1    1    6 1
     2    2    6 1
     3    3    7 1
     4    4    7 1
     5    5    8 1
     6    6    9 1
     7    7   10 1
     8    8    9 1
     9    8   10 1
    10    1   11 1
    11    1   12 1
    12    1   13 1
    13    2   14 1
    14    2   15 1
    15    2   16 1
    16    3   17 1
    17    3   18 1
    18    3   19 1
    19    4   20 1
    20    4   21 1
    21    4   22 1
    22    5   23 1
    23    5   24 1
    24    5   25 1
    25    6   26 1
    26    7   27 1
    27    8   28 1
@<TRIPOS>SUBSTRUCTURE
     1 <0>         1 GROUP 0 A     ****
