@<TRIPOS>MOLECULE
AlkEthOH_c288
   33    32     1     0     0
SMALL
USER_CHARGES

@<TRIPOS>ATOM
      1 C1          0.9488    1.3115   -2.7350 CT        1 <0>       -0.09043
      2 C2          0.0942    0.6346   -0.4846 CT        1 <0>       -0.09043
      3 C3         -1.2846    2.3113   -3.3775 CT        1 <0>       -0.10984
      4 C4         -0.7100    1.6065   -5.7190 CT        1 <0>       -0.10984
      5 C5         -3.0131    1.1776   -4.8135 CT        1 <0>       -0.10984
      6 C6         -2.7168    0.1117   -2.2705 CT        1 <0>       -0.10274
      7 C7         -0.8108   -1.5054   -2.1829 CT        1 <0>       -0.10274
      8 C8         -0.3101    0.9926   -1.9222 CT        1 <0>       -0.08761
      9 C9         -1.5267    1.2732   -4.4724 CT        1 <0>        0.16315
     10 C10        -1.2285   -0.0821   -2.5758 CT        1 <0>        0.17087
     11 O1         -1.0902    0.0111   -4.0012 OS        1 <0>       -0.42805
     12 H1          1.5719    0.4165   -2.8422 HC        1 <0>        0.03619
     13 H2          1.5632    2.0714   -2.2437 HC        1 <0>        0.03619
     14 H3          0.7036    1.6634   -3.7418 HC        1 <0>        0.03619
     15 H4          0.6857   -0.2878   -0.4731 HC        1 <0>        0.03619
     16 H5         -0.7798    0.4711    0.1537 HC        1 <0>        0.03619
     17 H6          0.7081    1.4201   -0.0331 HC        1 <0>        0.03619
     18 H7         -1.8691    2.0756   -2.4810 HC        1 <0>        0.04195
     19 H8         -0.2271    2.3647   -3.0991 HC        1 <0>        0.04195
     20 H9         -1.6073    3.3065   -3.7041 HC        1 <0>        0.04195
     21 H10        -0.8806    0.8643   -6.5071 HC        1 <0>        0.04195
     22 H11         0.3637    1.5829   -5.5000 HC        1 <0>        0.04195
     23 H12        -0.9616    2.5960   -6.1142 HC        1 <0>        0.04195
     24 H13        -3.1870    0.4331   -5.5988 HC        1 <0>        0.04195
     25 H14        -3.6109    0.9029   -3.9384 HC        1 <0>        0.04195
     26 H15        -3.3854    2.1317   -5.2040 HC        1 <0>        0.04195
     27 H16        -3.0539    1.1183   -2.5379 HC        1 <0>        0.04264
     28 H17        -2.9492   -0.0692   -1.2170 HC        1 <0>        0.04264
     29 H18        -3.3251   -0.5742   -2.8724 HC        1 <0>        0.04264
     30 H19         0.2481   -1.6958   -2.3817 HC        1 <0>        0.04264
     31 H20        -1.4066   -2.2497   -2.7233 HC        1 <0>        0.04264
     32 H21        -0.9927   -1.6827   -1.1162 HC        1 <0>        0.04264
     33 H22        -0.8945    1.9205   -1.8465 HC        1 <0>        0.04697
@<TRIPOS>BOND
     1    1    8 1
     2    2    8 1
     3    3    9 1
     4    4    9 1
     5    5    9 1
     6    6   10 1
     7    7   10 1
     8    8   10 1
     9    9   11 1
    10   10   11 1
    11    1   12 1
    12    1   13 1
    13    1   14 1
    14    2   15 1
    15    2   16 1
    16    2   17 1
    17    3   18 1
    18    3   19 1
    19    3   20 1
    20    4   21 1
    21    4   22 1
    22    4   23 1
    23    5   24 1
    24    5   25 1
    25    5   26 1
    26    6   27 1
    27    6   28 1
    28    6   29 1
    29    7   30 1
    30    7   31 1
    31    7   32 1
    32    8   33 1
@<TRIPOS>SUBSTRUCTURE
     1 <0>         1 GROUP 0 A     ****
