@<TRIPOS>MOLECULE
AlkEthOH_c332
   27    26     1     0     0
SMALL
USER_CHARGES

@<TRIPOS>ATOM
      1 C1          0.2807    0.8790   -0.7444 CT        1 <0>       -0.09039
      2 C2         -0.4068    3.2163   -1.3080 CT        1 <0>       -0.09039
      3 C3          0.9898    5.6251    1.2149 CT        1 <0>       -0.10714
      4 C4         -0.5847    5.5077    3.1793 CT        1 <0>       -0.10714
      5 C5         -0.0192    1.6440    2.2492 CT        1 <0>       -0.11696
      6 C6         -0.4527    2.1211   -0.2344 CT        1 <0>       -0.06638
      7 C7          0.2588    4.7163    2.1914 CT        1 <0>        0.13846
      8 C8          0.1204    2.6388    1.1017 CT        1 <0>        0.14301
      9 O1         -0.5788    3.8302    1.4669 OS        1 <0>       -0.42451
     10 H1          1.3438    1.0859   -0.9074 HC        1 <0>        0.03570
     11 H2          0.1973    0.0480   -0.0376 HC        1 <0>        0.03570
     12 H3         -0.1462    0.5370   -1.6936 HC        1 <0>        0.03570
     13 H4          0.6219    3.5300   -1.5136 HC        1 <0>        0.03570
     14 H5         -0.9595    4.1039   -0.9810 HC        1 <0>        0.03570
     15 H6         -0.8508    2.8684   -2.2469 HC        1 <0>        0.03570
     16 H7          0.2887    6.2487    0.6518 HC        1 <0>        0.04206
     17 H8          1.6867    6.2783    1.7509 HC        1 <0>        0.04206
     18 H9          1.5879    5.0422    0.5057 HC        1 <0>        0.04206
     19 H10        -1.3233    6.1285    2.6630 HC        1 <0>        0.04206
     20 H11         0.0521    6.1564    3.7902 HC        1 <0>        0.04206
     21 H12        -1.1103    4.8408    3.8716 HC        1 <0>        0.04206
     22 H13        -1.0600    1.3510    2.4113 HC        1 <0>        0.04109
     23 H14         0.5584    0.7363    2.0424 HC        1 <0>        0.04109
     24 H15         0.3791    2.0634    3.1795 HC        1 <0>        0.04109
     25 H16        -1.5100    1.8637   -0.0871 HC        1 <0>        0.05957
     26 H17         0.9861    4.1070    2.7378 H1        1 <0>        0.03650
     27 H18         1.1771    2.9031    0.9762 H1        1 <0>        0.03554
@<TRIPOS>BOND
     1    1    6 1
     2    2    6 1
     3    3    7 1
     4    4    7 1
     5    5    8 1
     6    6    8 1
     7    7    9 1
     8    8    9 1
     9    1   10 1
    10    1   11 1
    11    1   12 1
    12    2   13 1
    13    2   14 1
    14    2   15 1
    15    3   16 1
    16    3   17 1
    17    3   18 1
    18    4   19 1
    19    4   20 1
    20    4   21 1
    21    5   22 1
    22    5   23 1
    23    5   24 1
    24    6   25 1
    25    7   26 1
    26    8   27 1
@<TRIPOS>SUBSTRUCTURE
     1 <0>         1 GROUP 0 A     ****
