@<TRIPOS>MOLECULE
AlkEthOH_c1167
   22    21     1     0     0
SMALL
USER_CHARGES

@<TRIPOS>ATOM
      1 C1         -1.4568   -2.3634    2.8384 CT        1 <0>       -0.09705
      2 C2          2.2145   -0.0379    0.3096 CT        1 <0>       -0.08787
      3 C3          0.5162    1.7758    0.6240 CT        1 <0>       -0.08787
      4 C4         -1.3855   -1.9579    1.3816 CT        1 <0>        0.13479
      5 C5          0.8773    0.5269   -0.1829 CT        1 <0>       -0.08513
      6 C6         -0.2545   -0.5189   -0.1271 CT        1 <0>        0.33894
      7 O1         -1.4577    0.0616   -0.6225 OH        1 <0>       -0.62619
      8 O2         -0.3864   -0.9591    1.2275 OS        1 <0>       -0.41599
      9 H1         -0.5004   -2.7713    3.1772 HC        1 <0>        0.04395
     10 H2         -1.7171   -1.5046    3.4658 HC        1 <0>        0.04395
     11 H3         -2.2363   -3.1171    2.9914 HC        1 <0>        0.04395
     12 H4          2.1374   -0.3507    1.3567 HC        1 <0>        0.04182
     13 H5          2.5251   -0.9090   -0.2768 HC        1 <0>        0.04182
     14 H6          3.0083    0.7136    0.2484 HC        1 <0>        0.04182
     15 H7          0.3650    1.5432    1.6833 HC        1 <0>        0.04182
     16 H8          1.3131    2.5241    0.5553 HC        1 <0>        0.04182
     17 H9         -0.4026    2.2325    0.2416 HC        1 <0>        0.04182
     18 H10        -2.3451   -1.5509    1.0492 H1        1 <0>        0.03474
     19 H11        -1.1245   -2.8169    0.7563 H1        1 <0>        0.03474
     20 H12         1.0159    0.8214   -1.2314 HC        1 <0>        0.04020
     21 H13         0.0188   -1.3697   -0.7646 H2        1 <0>        0.02435
     22 H14        -1.2898    0.3357   -1.5400 HO        1 <0>        0.40957
@<TRIPOS>BOND
     1    1    4 1
     2    2    5 1
     3    3    5 1
     4    4    8 1
     5    5    6 1
     6    6    7 1
     7    6    8 1
     8    1    9 1
     9    1   10 1
    10    1   11 1
    11    2   12 1
    12    2   13 1
    13    2   14 1
    14    3   15 1
    15    3   16 1
    16    3   17 1
    17    4   18 1
    18    4   19 1
    19    5   20 1
    20    6   21 1
    21    7   22 1
@<TRIPOS>SUBSTRUCTURE
     1 <0>         1 GROUP 0 A     ****
