@<TRIPOS>MOLECULE
AlkEthOH_c875
   18    17     1     0     0
SMALL
USER_CHARGES

@<TRIPOS>ATOM
      1 C1          1.0706   -2.6224   -0.2987 CT        1 <0>       -0.12405
      2 C2         -1.3305    1.6299   -0.5412 CT        1 <0>        0.12859
      3 C3          1.4140   -1.1638   -0.5635 CT        1 <0>        0.34133
      4 C4          0.8528    1.0503    0.1846 CT        1 <0>        0.52156
      5 O1          1.1993   -0.8654   -1.9393 OH        1 <0>       -0.62088
      6 O2          0.7222    1.7263    1.4360 OH        1 <0>       -0.63898
      7 O3          0.0622    1.6983   -0.8181 OS        1 <0>       -0.46184
      8 O4          0.6107   -0.3584    0.3011 OS        1 <0>       -0.46838
      9 H1          0.0125   -2.8159   -0.5077 HC        1 <0>        0.05773
     10 H2          1.6597   -3.2864   -0.9388 HC        1 <0>        0.05773
     11 H3          1.2467   -2.8797    0.7507 HC        1 <0>        0.05773
     12 H4         -1.8858    2.1373   -1.3338 H1        1 <0>        0.04185
     13 H5         -1.5350    2.1035    0.4223 H1        1 <0>        0.04185
     14 H6         -1.6339    0.5810   -0.5010 H1        1 <0>        0.04185
     15 H7          2.4759   -1.0077   -0.3446 H2        1 <0>        0.08171
     16 H8          1.9061    1.1493   -0.1047 H3        1 <0>        0.09916
     17 H9          1.7725   -1.4436   -2.4701 HO        1 <0>        0.41616
     18 H10         1.0297    2.6400    1.3111 HO        1 <0>        0.42688
@<TRIPOS>BOND
     1    1    3 1
     2    2    7 1
     3    3    5 1
     4    3    8 1
     5    4    6 1
     6    4    7 1
     7    4    8 1
     8    1    9 1
     9    1   10 1
    10    1   11 1
    11    2   12 1
    12    2   13 1
    13    2   14 1
    14    3   15 1
    15    4   16 1
    16    5   17 1
    17    6   18 1
@<TRIPOS>SUBSTRUCTURE
     1 <0>         1 GROUP 0 A     ****
