@<TRIPOS>MOLECULE
AlkEthOH_c375
   35    34     1     0     0
SMALL
USER_CHARGES

@<TRIPOS>ATOM
      1 C1         -1.0829   -1.7735   -0.9903 CT        1 <0>       -0.09087
      2 C2          0.7836   -2.3081   -2.5517 CT        1 <0>       -0.09087
      3 C3         -0.3727    2.6500   -0.2782 CT        1 <0>       -0.09087
      4 C4         -2.6138    1.7937    0.3725 CT        1 <0>       -0.09087
      5 C5          1.9209    1.0518    1.0447 CT        1 <0>       -0.09029
      6 C6          1.1675   -1.1675    1.8190 CT        1 <0>       -0.09029
      7 C7          1.0944   -0.5716   -0.6677 CT        1 <0>       -0.06319
      8 C8         -0.5699    0.4753    1.0477 CT        1 <0>       -0.06319
      9 C9          0.4420   -1.8975   -1.1219 CT        1 <0>       -0.06701
     10 C10        -1.1956    1.3792   -0.0411 CT        1 <0>       -0.06701
     11 C11         0.8717   -0.0539    0.7882 CT        1 <0>       -0.04196
     12 H1         -1.4678   -0.9798   -1.6393 HC        1 <0>        0.03269
     13 H2         -1.5825   -2.7094   -1.2632 HC        1 <0>        0.03269
     14 H3         -1.3666   -1.5244    0.0377 HC        1 <0>        0.03269
     15 H4          0.4948   -1.5348   -3.2710 HC        1 <0>        0.03269
     16 H5          1.8516   -2.5101   -2.6606 HC        1 <0>        0.03269
     17 H6          0.2660   -3.2335   -2.8283 HC        1 <0>        0.03269
     18 H7         -0.2711    3.2214    0.6511 HC        1 <0>        0.03269
     19 H8          0.6356    2.4090   -0.6326 HC        1 <0>        0.03269
     20 H9         -0.8356    3.3099   -1.0145 HC        1 <0>        0.03269
     21 H10        -2.6065    2.3460    1.3186 HC        1 <0>        0.03269
     22 H11        -3.0710    2.4329   -0.3904 HC        1 <0>        0.03269
     23 H12        -3.2577    0.9170    0.4965 HC        1 <0>        0.03269
     24 H13         1.7976    1.8963    0.3593 HC        1 <0>        0.03349
     25 H14         2.9381    0.6692    0.8982 HC        1 <0>        0.03349
     26 H15         1.8562    1.4321    2.0703 HC        1 <0>        0.03349
     27 H16         0.4676   -2.0042    1.7146 HC        1 <0>        0.03349
     28 H17         2.1792   -1.5681    1.6807 HC        1 <0>        0.03349
     29 H18         1.1148   -0.8114    2.8491 HC        1 <0>        0.03349
     30 H19         2.1760   -0.6320   -0.8557 HC        1 <0>        0.03874
     31 H20         0.7340    0.2060   -1.3561 HC        1 <0>        0.03874
     32 H21        -1.2200   -0.3944    1.2078 HC        1 <0>        0.03874
     33 H22        -0.5843    1.0144    2.0054 HC        1 <0>        0.03874
     34 H23         0.7514   -2.7042   -0.4492 HC        1 <0>        0.04912
     35 H24        -1.2761    0.8354   -0.9880 HC        1 <0>        0.04912
@<TRIPOS>BOND
     1    1    9 1
     2    2    9 1
     3    3   10 1
     4    4   10 1
     5    5   11 1
     6    6   11 1
     7    7    9 1
     8    7   11 1
     9    8   10 1
    10    8   11 1
    11    1   12 1
    12    1   13 1
    13    1   14 1
    14    2   15 1
    15    2   16 1
    16    2   17 1
    17    3   18 1
    18    3   19 1
    19    3   20 1
    20    4   21 1
    21    4   22 1
    22    4   23 1
    23    5   24 1
    24    5   25 1
    25    5   26 1
    26    6   27 1
    27    6   28 1
    28    6   29 1
    29    7   30 1
    30    7   31 1
    31    8   32 1
    32    8   33 1
    33    9   34 1
    34   10   35 1
@<TRIPOS>SUBSTRUCTURE
     1 <0>         1 GROUP 0 A     ****
