@<TRIPOS>MOLECULE
AlkEthOH_c493
   23    22     1     0     0
SMALL
USER_CHARGES

@<TRIPOS>ATOM
      1 C1          1.5941    1.2405   -2.9001 CT        1 <0>       -0.10691
      2 C2         -0.9155    1.0369   -2.7906 CT        1 <0>       -0.10691
      3 C3         -0.5877   -1.9370    0.6464 CT        1 <0>       -0.12088
      4 C4          0.3679    1.2406   -2.0000 CT        1 <0>        0.14104
      5 C5          0.0325   -0.6500    1.1711 CT        1 <0>        0.11531
      6 C6         -0.1404    0.5253    0.2012 CT        1 <0>        0.29580
      7 O1          1.4217   -0.8948    1.3922 OH        1 <0>       -0.60362
      8 O2          0.4290    1.6802    0.8139 OH        1 <0>       -0.62083
      9 O3          0.4943    0.2029   -1.0375 OS        1 <0>       -0.46500
     10 H1          1.6758    0.3039   -3.4600 HC        1 <0>        0.04267
     11 H2          1.5439    2.0710   -3.6125 HC        1 <0>        0.04267
     12 H3          2.5112    1.3816   -2.3174 HC        1 <0>        0.04267
     13 H4         -0.8937    0.0955   -3.3479 HC        1 <0>        0.04267
     14 H5         -1.0615    1.8596   -3.4988 HC        1 <0>        0.04267
     15 H6         -1.7891    1.0325   -2.1294 HC        1 <0>        0.04267
     16 H7         -0.1679   -2.2165   -0.3259 HC        1 <0>        0.05123
     17 H8         -1.6734   -1.8434    0.5485 HC        1 <0>        0.05123
     18 H9         -0.3704   -2.7671    1.3275 HC        1 <0>        0.05123
     19 H10         0.3149    2.1887   -1.4549 H1        1 <0>        0.06268
     20 H11        -0.4082   -0.3991    2.1427 H1        1 <0>        0.08526
     21 H12        -1.2122    0.7011    0.0428 H2        1 <0>        0.07539
     22 H13         1.4731   -1.6101    2.0440 HO        1 <0>        0.41497
     23 H14        -0.0519    1.8327    1.6450 HO        1 <0>        0.42399
@<TRIPOS>BOND
     1    1    4 1
     2    2    4 1
     3    3    5 1
     4    4    9 1
     5    5    6 1
     6    5    7 1
     7    6    8 1
     8    6    9 1
     9    1   10 1
    10    1   11 1
    11    1   12 1
    12    2   13 1
    13    2   14 1
    14    2   15 1
    15    3   16 1
    16    3   17 1
    17    3   18 1
    18    4   19 1
    19    5   20 1
    20    6   21 1
    21    7   22 1
    22    8   23 1
@<TRIPOS>SUBSTRUCTURE
     1 <0>         1 GROUP 0 A     ****
