@<TRIPOS>MOLECULE
AlkEthOH_c1021
   23    22     1     0     0
SMALL
USER_CHARGES

@<TRIPOS>ATOM
      1 C1         -2.7707    0.5868   -0.9961 CT        1 <0>       -0.09185
      2 C2          1.4938   -0.9342   -0.7653 CT        1 <0>       -0.08591
      3 C3          1.3944    1.2099    0.5305 CT        1 <0>       -0.08591
      4 C4          1.1544   -0.9797    1.7095 CT        1 <0>       -0.08591
      5 C5         -1.2484    0.5702   -0.9733 CT        1 <0>       -0.07968
      6 C6         -0.7212   -0.1852    0.2516 CT        1 <0>       -0.06836
      7 C7          0.8221   -0.2124    0.4145 CT        1 <0>       -0.05454
      8 H1         -3.1719    1.0499   -0.0890 HC        1 <0>        0.03224
      9 H2         -3.1302    1.1594   -1.8569 HC        1 <0>        0.03224
     10 H3         -3.1732   -0.4284   -1.0715 HC        1 <0>        0.03224
     11 H4          1.1075   -1.9535   -0.8764 HC        1 <0>        0.03354
     12 H5          1.3310   -0.4065   -1.7106 HC        1 <0>        0.03354
     13 H6          2.5778   -1.0043   -0.6181 HC        1 <0>        0.03354
     14 H7          0.9348    1.7526    1.3647 HC        1 <0>        0.03354
     15 H8          1.2085    1.7859   -0.3826 HC        1 <0>        0.03354
     16 H9          2.4745    1.2000    0.7093 HC        1 <0>        0.03354
     17 H10         0.6955   -0.5011    2.5820 HC        1 <0>        0.03354
     18 H11         0.7879   -2.0117    1.6661 HC        1 <0>        0.03354
     19 H12         2.2363   -1.0185    1.8797 HC        1 <0>        0.03354
     20 H13        -0.8923    0.1003   -1.8957 HC        1 <0>        0.03895
     21 H14        -0.8897    1.6045   -0.9697 HC        1 <0>        0.03895
     22 H15        -1.0923   -1.2184    0.2087 HC        1 <0>        0.03784
     23 H16        -1.1658    0.2598    1.1523 HC        1 <0>        0.03784
@<TRIPOS>BOND
     1    1    5 1
     2    2    7 1
     3    3    7 1
     4    4    7 1
     5    5    6 1
     6    6    7 1
     7    1    8 1
     8    1    9 1
     9    1   10 1
    10    2   11 1
    11    2   12 1
    12    2   13 1
    13    3   14 1
    14    3   15 1
    15    3   16 1
    16    4   17 1
    17    4   18 1
    18    4   19 1
    19    5   20 1
    20    5   21 1
    21    6   22 1
    22    6   23 1
@<TRIPOS>SUBSTRUCTURE
     1 <0>         1 GROUP 0 A     ****
