@<TRIPOS>MOLECULE
AlkEthOH_c1265
   18    17     1     0     0
SMALL
USER_CHARGES

@<TRIPOS>ATOM
      1 C1          1.5776   -1.4066   -2.4515 CT        1 <0>       -0.09404
      2 C2          0.9028   -0.2632   -1.7241 CT        1 <0>        0.14306
      3 C3         -1.6137   -0.2922    1.0592 CT        1 <0>        0.34643
      4 C4          0.5036    0.6236    0.4505 CT        1 <0>        0.53241
      5 O1         -1.3576   -1.6130    0.6064 OH        1 <0>       -0.61470
      6 O2          1.1001    1.8961    0.1888 OH        1 <0>       -0.62156
      7 O3          1.1094   -0.4178   -0.3260 OS        1 <0>       -0.44380
      8 O4         -0.9194    0.7037    0.3133 OS        1 <0>       -0.48485
      9 H1          2.6536   -1.4124   -2.2563 HC        1 <0>        0.04359
     10 H2          1.1559   -2.3668   -2.1368 HC        1 <0>        0.04359
     11 H3          1.4149   -1.3262   -3.5315 HC        1 <0>        0.04359
     12 H4         -0.1729   -0.2631   -1.9235 H1        1 <0>        0.03492
     13 H5          1.3259    0.6953   -2.0391 H1        1 <0>        0.03492
     14 H6         -1.3997   -0.2108    2.1309 H2        1 <0>        0.03930
     15 H7         -2.6830   -0.1069    0.9227 H2        1 <0>        0.03930
     16 H8          0.7328    0.3912    1.4975 H3        1 <0>        0.11590
     17 H9         -1.8711   -2.2142    1.1723 HO        1 <0>        0.41385
     18 H10         0.6466    2.5533    0.7433 HO        1 <0>        0.42809
@<TRIPOS>BOND
     1    1    2 1
     2    2    7 1
     3    3    5 1
     4    3    8 1
     5    4    6 1
     6    4    7 1
     7    4    8 1
     8    1    9 1
     9    1   10 1
    10    1   11 1
    11    2   12 1
    12    2   13 1
    13    3   14 1
    14    3   15 1
    15    4   16 1
    16    5   17 1
    17    6   18 1
@<TRIPOS>SUBSTRUCTURE
     1 <0>         1 GROUP 0 A     ****
