@<TRIPOS>MOLECULE
AlkEthOH_c1039
   21    20     1     0     0
SMALL
USER_CHARGES

@<TRIPOS>ATOM
      1 C1          0.9423   -0.1186   -0.5403 CT        1 <0>       -0.09233
      2 C2         -0.2913   -4.8812   -1.5864 CT        1 <0>       -0.12327
      3 C3          1.3843   -3.8070   -3.1121 CT        1 <0>       -0.12327
      4 C4          0.7887   -1.1227   -1.6735 CT        1 <0>       -0.07911
      5 C5          0.4071   -2.5093   -1.1412 CT        1 <0>       -0.06315
      6 C6          0.1536   -3.5662   -2.2352 CT        1 <0>        0.14828
      7 O1         -0.9126   -3.1052   -3.0679 OH        1 <0>       -0.59710
      8 H1          1.7002   -0.4495    0.1771 HC        1 <0>        0.03140
      9 H2         -0.0030    0.0170   -0.0053 HC        1 <0>        0.03140
     10 H3          1.2506    0.8543   -0.9357 HC        1 <0>        0.03140
     11 H4         -1.1729   -4.7282   -0.9535 HC        1 <0>        0.04186
     12 H5          0.4928   -5.2770   -0.9306 HC        1 <0>        0.04186
     13 H6         -0.5326   -5.6399   -2.3379 HC        1 <0>        0.04186
     14 H7          1.7236   -2.8815   -3.5887 HC        1 <0>        0.04186
     15 H8          1.1480   -4.4953   -3.9323 HC        1 <0>        0.04186
     16 H9          2.2119   -4.2324   -2.5357 HC        1 <0>        0.04186
     17 H10         0.0244   -0.7586   -2.3689 HC        1 <0>        0.04815
     18 H11         1.7346   -1.1738   -2.2228 HC        1 <0>        0.04815
     19 H12         1.1930   -2.8628   -0.4615 HC        1 <0>        0.04587
     20 H13        -0.5071   -2.3976   -0.5427 HC        1 <0>        0.04587
     21 H14        -1.0619   -3.7984   -3.7277 HO        1 <0>        0.39655
@<TRIPOS>BOND
     1    1    4 1
     2    2    6 1
     3    3    6 1
     4    4    5 1
     5    5    6 1
     6    6    7 1
     7    1    8 1
     8    1    9 1
     9    1   10 1
    10    2   11 1
    11    2   12 1
    12    2   13 1
    13    3   14 1
    14    3   15 1
    15    3   16 1
    16    4   17 1
    17    4   18 1
    18    5   19 1
    19    5   20 1
    20    7   21 1
@<TRIPOS>SUBSTRUCTURE
     1 <0>         1 GROUP 0 A     ****
