@<TRIPOS>MOLECULE
AlkEthOH_c534
   30    29     1     0     0
SMALL
USER_CHARGES

@<TRIPOS>ATOM
      1 C1          3.9100   -0.2111   -0.5776 CT        1 <0>       -0.11083
      2 C2          2.4625   -2.0947    0.2642 CT        1 <0>       -0.11083
      3 C3         -1.8786    1.6755    1.5460 CT        1 <0>       -0.11441
      4 C4         -0.6658   -0.4607    1.9665 CT        1 <0>       -0.11441
      5 C5          0.3208    0.4881   -2.3253 CT        1 <0>       -0.11551
      6 C6          2.5465   -0.8814   -0.6494 CT        1 <0>        0.16356
      7 C7         -0.6554    0.8397    1.1618 CT        1 <0>        0.36904
      8 C8          0.2706   -0.1163   -0.9136 CT        1 <0>        0.54420
      9 O1          0.4828    1.6252    1.5188 OH        1 <0>       -0.60628
     10 O2         -0.1199   -1.4890   -1.0187 OH        1 <0>       -0.65396
     11 O3          1.5455    0.0545   -0.2770 OS        1 <0>       -0.45111
     12 O4         -0.7595    0.6484   -0.2543 OS        1 <0>       -0.47649
     13 H1          4.1435    0.1059    0.4434 HC        1 <0>        0.04624
     14 H2          4.6913   -0.8993   -0.9178 HC        1 <0>        0.04624
     15 H3          3.9544    0.6642   -1.2351 HC        1 <0>        0.04624
     16 H4          2.6615   -1.8227    1.3052 HC        1 <0>        0.04624
     17 H5          3.1885   -2.8547   -0.0439 HC        1 <0>        0.04624
     18 H6          1.4737   -2.5631    0.2074 HC        1 <0>        0.04624
     19 H7         -1.8936    2.6153    0.9808 HC        1 <0>        0.05440
     20 H8         -1.8674    1.9400    2.6090 HC        1 <0>        0.05440
     21 H9         -2.8103    1.1466    1.3174 HC        1 <0>        0.05440
     22 H10         0.1990   -1.0851    1.7154 HC        1 <0>        0.05440
     23 H11        -0.6633   -0.2645    3.0436 HC        1 <0>        0.05440
     24 H12        -1.5504   -1.0641    1.7365 HC        1 <0>        0.05440
     25 H13         0.6150    1.5423   -2.3122 HC        1 <0>        0.06006
     26 H14         1.0500   -0.0418   -2.9492 HC        1 <0>        0.06006
     27 H15        -0.6564    0.4143   -2.8152 HC        1 <0>        0.06006
     28 H16         2.3430   -1.1860   -1.6812 H1        1 <0>        0.04721
     29 H17         0.4435    1.7920    2.4756 HO        1 <0>        0.41993
     30 H18        -0.9961   -1.5430   -1.4341 HO        1 <0>        0.42587
@<TRIPOS>BOND
     1    1    6 1
     2    2    6 1
     3    3    7 1
     4    4    7 1
     5    5    8 1
     6    6   11 1
     7    7    9 1
     8    7   12 1
     9    8   10 1
    10    8   11 1
    11    8   12 1
    12    1   13 1
    13    1   14 1
    14    1   15 1
    15    2   16 1
    16    2   17 1
    17    2   18 1
    18    3   19 1
    19    3   20 1
    20    3   21 1
    21    4   22 1
    22    4   23 1
    23    4   24 1
    24    5   25 1
    25    5   26 1
    26    5   27 1
    27    6   28 1
    28    9   29 1
    29   10   30 1
@<TRIPOS>SUBSTRUCTURE
     1 <0>         1 GROUP 0 A     ****
