@<TRIPOS>MOLECULE
AlkEthOH_c487
   22    21     1     0     0
SMALL
USER_CHARGES

@<TRIPOS>ATOM
      1 C1          1.0495   -0.3816   -0.2534 CT        1 <0>       -0.08960
      2 C2          1.1039    1.1686   -2.2261 CT        1 <0>       -0.08960
      3 C3          1.1237    2.3800    3.5873 CT        1 <0>        0.11826
      4 C4          1.9991    1.9493   -0.0132 CT        1 <0>        0.13642
      5 C5          2.9081    2.6427    2.0573 CT        1 <0>        0.31638
      6 C6          1.8182    0.7470   -0.9439 CT        1 <0>       -0.06818
      7 O1          1.6913    3.1890    2.5657 OS        1 <0>       -0.44722
      8 O2          2.7244    1.5597    1.1457 OS        1 <0>       -0.45021
      9 H1          0.0462   -0.0483    0.0327 HC        1 <0>        0.03623
     10 H2          1.5657   -0.7163    0.6529 HC        1 <0>        0.03623
     11 H3          0.9340   -1.2452   -0.9165 HC        1 <0>        0.03623
     12 H4          0.1076    1.5654   -2.0043 HC        1 <0>        0.03623
     13 H5          0.9803    0.3150   -2.9009 HC        1 <0>        0.03623
     14 H6          1.6660    1.9434   -2.7588 HC        1 <0>        0.03623
     15 H7          0.1976    2.8378    3.9433 H1        1 <0>        0.03659
     16 H8          1.8342    2.2810    4.4119 H1        1 <0>        0.03659
     17 H9          0.9046    1.3913    3.1772 H1        1 <0>        0.03659
     18 H10         2.5635    2.7424   -0.5149 H1        1 <0>        0.03397
     19 H11         1.0314    2.3549    0.3013 H1        1 <0>        0.03397
     20 H12         3.4646    3.4474    1.5637 H2        1 <0>        0.06153
     21 H13         3.5272    2.2883    2.8893 H2        1 <0>        0.06153
     22 H14         2.8097    0.3560   -1.2057 HC        1 <0>        0.05560
@<TRIPOS>BOND
     1    1    6 1
     2    2    6 1
     3    3    7 1
     4    4    6 1
     5    4    8 1
     6    5    7 1
     7    5    8 1
     8    1    9 1
     9    1   10 1
    10    1   11 1
    11    2   12 1
    12    2   13 1
    13    2   14 1
    14    3   15 1
    15    3   16 1
    16    3   17 1
    17    4   18 1
    18    4   19 1
    19    5   20 1
    20    5   21 1
    21    6   22 1
@<TRIPOS>SUBSTRUCTURE
     1 <0>         1 GROUP 0 A     ****
