@<TRIPOS>MOLECULE
AlkEthOH_c1300
   17    16     1     0     0
SMALL
USER_CHARGES

@<TRIPOS>ATOM
      1 C1          0.8812    0.3388    0.2011 CT        1 <0>        0.11910
      2 C2          4.5989    1.2607   -2.7817 CT        1 <0>        0.12853
      3 C3          3.6022    1.8883   -1.8264 CT        1 <0>        0.12879
      4 C4          2.7630    1.7603    0.3811 CT        1 <0>        0.31650
      5 O1          5.9096    1.4114   -2.2501 OH        1 <0>       -0.60036
      6 O2          1.3916    1.6503    0.0008 OS        1 <0>       -0.44983
      7 O3          3.6773    1.2212   -0.5734 OS        1 <0>       -0.44770
      8 H1         -0.1677    0.3048   -0.1032 H1        1 <0>        0.03612
      9 H2          0.9747    0.0677    1.2557 H1        1 <0>        0.03612
     10 H3          1.4574   -0.3634   -0.4060 H1        1 <0>        0.03612
     11 H4          4.5696    1.7500   -3.7600 H1        1 <0>        0.03593
     12 H5          4.3970    0.1918   -2.8978 H1        1 <0>        0.03593
     13 H6          2.5792    1.7914   -2.2035 H1        1 <0>        0.04690
     14 H7          3.8376    2.9446   -1.6669 H1        1 <0>        0.04690
     15 H8          2.9881    2.8198    0.5471 H2        1 <0>        0.06505
     16 H9          2.9217    1.2455    1.3355 H2        1 <0>        0.06505
     17 H10         6.5173    1.0000   -2.8852 HO        1 <0>        0.40085
@<TRIPOS>BOND
     1    1    6 1
     2    2    3 1
     3    2    5 1
     4    3    7 1
     5    4    6 1
     6    4    7 1
     7    1    8 1
     8    1    9 1
     9    1   10 1
    10    2   11 1
    11    2   12 1
    12    3   13 1
    13    3   14 1
    14    4   15 1
    15    4   16 1
    16    5   17 1
@<TRIPOS>SUBSTRUCTURE
     1 <0>         1 GROUP 0 A     ****
