@<TRIPOS>MOLECULE
AlkEthOH_c482
   27    26     1     0     0
SMALL
USER_CHARGES

@<TRIPOS>ATOM
      1 C1          1.2197    4.0631    1.1343 CT        1 <0>       -0.09048
      2 C2         -0.0385    3.1619   -0.8411 CT        1 <0>       -0.09045
      3 C3          3.7142   -0.4637    3.0048 CT        1 <0>       -0.09045
      4 C4          5.8767   -0.4058    1.7328 CT        1 <0>       -0.09045
      5 C5          1.9991    1.9493   -0.0132 CT        1 <0>        0.13326
      6 C6          3.8654    0.7821    0.8099 CT        1 <0>        0.13326
      7 C7          0.7897    2.7977    0.3891 CT        1 <0>       -0.06830
      8 C8          4.6082    0.3689    2.0835 CT        1 <0>       -0.06830
      9 O1          2.7244    1.5597    1.1457 OS        1 <0>       -0.42333
     10 H1          1.8506    4.6923    0.4972 HC        1 <0>        0.03652
     11 H2          1.7896    3.8174    2.0369 HC        1 <0>        0.03652
     12 H3          0.3521    4.6606    1.4330 HC        1 <0>        0.03652
     13 H4          0.5544    3.7499   -1.5496 HC        1 <0>        0.03652
     14 H5         -0.9111    3.7605   -0.5590 HC        1 <0>        0.03652
     15 H6         -0.3955    2.2658   -1.3605 HC        1 <0>        0.03652
     16 H7          3.3991   -1.3874    2.5076 HC        1 <0>        0.03652
     17 H8          2.8135    0.0906    3.2902 HC        1 <0>        0.03652
     18 H9          4.2435   -0.7457    3.9209 HC        1 <0>        0.03652
     19 H10         5.6343   -1.3208    1.1821 HC        1 <0>        0.03652
     20 H11         6.4182   -0.6957    2.6395 HC        1 <0>        0.03652
     21 H12         6.5511    0.1942    1.1122 HC        1 <0>        0.03652
     22 H13         1.6759    1.0404   -0.5315 H1        1 <0>        0.02465
     23 H14         2.6715    2.5075   -0.6737 H1        1 <0>        0.02465
     24 H15         4.5118    1.3896    0.1677 H1        1 <0>        0.02465
     25 H16         3.5349   -0.0949    0.2429 H1        1 <0>        0.02465
     26 H17         0.1639    2.2109    1.0736 HC        1 <0>        0.05920
     27 H18         4.8905    1.2762    2.6328 HC        1 <0>        0.05920
@<TRIPOS>BOND
     1    1    7 1
     2    2    7 1
     3    3    8 1
     4    4    8 1
     5    5    7 1
     6    5    9 1
     7    6    8 1
     8    6    9 1
     9    1   10 1
    10    1   11 1
    11    1   12 1
    12    2   13 1
    13    2   14 1
    14    2   15 1
    15    3   16 1
    16    3   17 1
    17    3   18 1
    18    4   19 1
    19    4   20 1
    20    4   21 1
    21    5   22 1
    22    5   23 1
    23    6   24 1
    24    6   25 1
    25    7   26 1
    26    8   27 1
@<TRIPOS>SUBSTRUCTURE
     1 <0>         1 GROUP 0 A     ****
