@<TRIPOS>MOLECULE
AlkEthOH_c440
   22    21     1     0     0
SMALL
USER_CHARGES

@<TRIPOS>ATOM
      1 C1         -1.0311   -1.6486    1.9539 CT        1 <0>       -0.09230
      2 C2          0.6788   -0.9363    0.2704 CT        1 <0>       -0.09230
      3 C3         -1.3044   -2.3762   -0.4336 CT        1 <0>       -0.11091
      4 C4         -3.2044   -3.8506   -1.3050 CT        1 <0>        0.13364
      5 C5         -0.2887   -2.0486    0.6755 CT        1 <0>       -0.06812
      6 C6         -2.2797   -3.5213   -0.1374 CT        1 <0>        0.12146
      7 O1         -4.0385   -4.9444   -0.9339 OH        1 <0>       -0.60024
      8 O2         -1.4880   -4.6792    0.1516 OH        1 <0>       -0.60234
      9 H1         -1.6375   -0.7520    1.7875 HC        1 <0>        0.03553
     10 H2         -0.3248   -1.4274    2.7610 HC        1 <0>        0.03553
     11 H3         -1.6968   -2.4489    2.2948 HC        1 <0>        0.03553
     12 H4          0.1426   -0.0126    0.0278 HC        1 <0>        0.03553
     13 H5          1.3798   -0.7163    1.0829 HC        1 <0>        0.03553
     14 H6          1.2745   -1.2251   -0.6009 HC        1 <0>        0.03553
     15 H7         -1.8846   -1.4732   -0.6696 HC        1 <0>        0.05176
     16 H8         -0.7663   -2.6144   -1.3618 HC        1 <0>        0.05176
     17 H9         -2.6316   -4.1503   -2.1886 H1        1 <0>        0.04385
     18 H10        -3.8554   -3.0099   -1.5578 H1        1 <0>        0.04385
     19 H11         0.2959   -2.9465    0.9069 HC        1 <0>        0.04421
     20 H12        -2.8613   -3.3123    0.7666 H1        1 <0>        0.05548
     21 H13        -4.6109   -5.1266   -1.6954 HO        1 <0>        0.40503
     22 H14        -0.9472   -4.4505    0.9210 HO        1 <0>        0.40199
@<TRIPOS>BOND
     1    1    5 1
     2    2    5 1
     3    3    5 1
     4    3    6 1
     5    4    6 1
     6    4    7 1
     7    6    8 1
     8    1    9 1
     9    1   10 1
    10    1   11 1
    11    2   12 1
    12    2   13 1
    13    2   14 1
    14    3   15 1
    15    3   16 1
    16    4   17 1
    17    4   18 1
    18    5   19 1
    19    6   20 1
    20    7   21 1
    21    8   22 1
@<TRIPOS>SUBSTRUCTURE
     1 <0>         1 GROUP 0 A     ****
