@<TRIPOS>MOLECULE
AlkEthOH_c400
   25    24     1     0     0
SMALL
USER_CHARGES

@<TRIPOS>ATOM
      1 C1          0.4978    0.6957    2.1228 CT        1 <0>       -0.09589
      2 C2         -1.5353   -0.7103    2.4883 CT        1 <0>       -0.09589
      3 C3         -0.6919    0.4867   -2.2972 CT        1 <0>       -0.13618
      4 C4          2.1563   -0.7010   -1.7360 CT        1 <0>        0.13338
      5 C5         -0.9613   -0.0410    0.1341 CT        1 <0>       -0.09456
      6 C6         -0.3841   -0.3995    1.5251 CT        1 <0>       -0.06467
      7 C7          0.0678    0.2425   -0.9861 CT        1 <0>        0.34952
      8 O1          0.7771    1.4301   -0.6310 OH        1 <0>       -0.62808
      9 O2          0.9165   -0.9083   -1.0759 OS        1 <0>       -0.42793
     10 H1         -0.0629    1.6305    2.2332 HC        1 <0>        0.03528
     11 H2          1.3673    0.8976    1.4885 HC        1 <0>        0.03528
     12 H3          0.8517    0.4198    3.1204 HC        1 <0>        0.03528
     13 H4         -2.1792    0.1654    2.6220 HC        1 <0>        0.03528
     14 H5         -1.1596   -1.0094    3.4730 HC        1 <0>        0.03528
     15 H6         -2.1582   -1.5240    2.1017 HC        1 <0>        0.03528
     16 H7         -0.0035    0.6926   -3.1234 HC        1 <0>        0.04854
     17 H8         -1.3181   -0.3744   -2.5553 HC        1 <0>        0.04854
     18 H9         -1.3688    1.3438   -2.2131 HC        1 <0>        0.04854
     19 H10         2.7233   -1.6350   -1.7496 H1        1 <0>        0.03735
     20 H11         2.7230    0.0741   -1.2138 H1        1 <0>        0.03735
     21 H12         1.9633   -0.3796   -2.7622 H1        1 <0>        0.03735
     22 H13        -1.6271    0.8261    0.2403 HC        1 <0>        0.05091
     23 H14        -1.5850   -0.8896   -0.1795 HC        1 <0>        0.05091
     24 H15         0.2197   -1.3110    1.4348 HC        1 <0>        0.07269
     25 H16         0.1345    2.1501   -0.5170 HO        1 <0>        0.41644
@<TRIPOS>BOND
     1    1    6 1
     2    2    6 1
     3    3    7 1
     4    4    9 1
     5    5    6 1
     6    5    7 1
     7    7    8 1
     8    7    9 1
     9    1   10 1
    10    1   11 1
    11    1   12 1
    12    2   13 1
    13    2   14 1
    14    2   15 1
    15    3   16 1
    16    3   17 1
    17    3   18 1
    18    4   19 1
    19    4   20 1
    20    4   21 1
    21    5   22 1
    22    5   23 1
    23    6   24 1
    24    8   25 1
@<TRIPOS>SUBSTRUCTURE
     1 <0>         1 GROUP 0 A     ****
