@<TRIPOS>MOLECULE
AlkEthOH_c208
   22    21     1     0     0
SMALL
USER_CHARGES

@<TRIPOS>ATOM
      1 C1         -0.1306    1.1717   -1.7019 CT        1 <0>       -0.12468
      2 C2          0.5148    2.4578    0.3522 CT        1 <0>       -0.12468
      3 C3         -0.2979   -1.3572    0.0741 CT        1 <0>       -0.08158
      4 C4          0.3840   -0.0476    0.4826 CT        1 <0>       -0.06196
      5 C5          0.3567   -2.5587    0.7448 CT        1 <0>        0.13106
      6 C6         -0.2102    1.2147   -0.1743 CT        1 <0>        0.15105
      7 O1         -0.3062   -3.7409    0.3177 OH        1 <0>       -0.59983
      8 O2         -1.5846    1.3149    0.2047 OH        1 <0>       -0.59663
      9 H1         -0.6459    0.2863   -2.0926 HC        1 <0>        0.04286
     10 H2         -0.5849    2.0594   -2.1538 HC        1 <0>        0.04286
     11 H3          0.9053    1.0896   -2.0471 HC        1 <0>        0.04286
     12 H4          0.4681    2.5054    1.4463 HC        1 <0>        0.04286
     13 H5          0.0821    3.3784   -0.0529 HC        1 <0>        0.04286
     14 H6          1.5789    2.4285    0.0910 HC        1 <0>        0.04286
     15 H7         -1.3630   -1.3374    0.3342 HC        1 <0>        0.06363
     16 H8         -0.2533   -1.4944   -1.0125 HC        1 <0>        0.06363
     17 H9          0.2945    0.0496    1.5730 HC        1 <0>        0.04582
     18 H10         1.4554   -0.1132    0.2542 HC        1 <0>        0.04582
     19 H11         1.4133   -2.6326    0.4682 H1        1 <0>        0.01809
     20 H12         0.2766   -2.4897    1.8344 H1        1 <0>        0.01809
     21 H13         0.1331   -4.4845    0.7613 HO        1 <0>        0.39723
     22 H14        -1.9171    2.1341   -0.1909 HO        1 <0>        0.39778
@<TRIPOS>BOND
     1    1    6 1
     2    2    6 1
     3    3    4 1
     4    3    5 1
     5    4    6 1
     6    5    7 1
     7    6    8 1
     8    1    9 1
     9    1   10 1
    10    1   11 1
    11    2   12 1
    12    2   13 1
    13    2   14 1
    14    3   15 1
    15    3   16 1
    16    4   17 1
    17    4   18 1
    18    5   19 1
    19    5   20 1
    20    7   21 1
    21    8   22 1
@<TRIPOS>SUBSTRUCTURE
     1 <0>         1 GROUP 0 A     ****
