@<TRIPOS>MOLECULE
AlkEthOH_c370
   30    29     1     0     0
SMALL
USER_CHARGES

@<TRIPOS>ATOM
      1 C1         -1.5189    0.9044   -1.5892 CT        1 <0>       -0.09140
      2 C2         -0.3266    2.9140   -0.7324 CT        1 <0>       -0.09140
      3 C3         -0.2897   -0.5113    2.5042 CT        1 <0>       -0.13013
      4 C4          0.1295   -1.6792   -1.2222 CT        1 <0>       -0.08804
      5 C5          1.9068   -1.3946    0.4884 CT        1 <0>       -0.08804
      6 C6          0.6511    0.6340   -0.2728 CT        1 <0>       -0.06715
      7 C7         -0.6555    1.4441   -0.4445 CT        1 <0>       -0.06593
      8 C8         -0.5522   -1.1766    1.1552 CT        1 <0>        0.14838
      9 C9          0.5114   -0.8881    0.0469 CT        1 <0>       -0.03760
     10 O1         -0.6422   -2.5886    1.3739 OH        1 <0>       -0.60265
     11 H1         -0.9695    0.9083   -2.5370 HC        1 <0>        0.03380
     12 H2         -2.4141    1.5224   -1.7204 HC        1 <0>        0.03380
     13 H3         -1.8552   -0.1175   -1.4011 HC        1 <0>        0.03380
     14 H4          0.2701    3.0075   -1.6460 HC        1 <0>        0.03380
     15 H5         -1.2380    3.5085   -0.8584 HC        1 <0>        0.03380
     16 H6          0.2536    3.3515    0.0870 HC        1 <0>        0.03380
     17 H7          0.6950   -0.8075    2.8839 HC        1 <0>        0.04254
     18 H8         -0.2643    0.5792    2.4173 HC        1 <0>        0.04254
     19 H9         -1.0323   -0.7935    3.2544 HC        1 <0>        0.04254
     20 H10        -0.8535   -1.3787   -1.6026 HC        1 <0>        0.03854
     21 H11         0.8506   -1.5138   -2.0291 HC        1 <0>        0.03854
     22 H12         0.0828   -2.7550   -1.0192 HC        1 <0>        0.03854
     23 H13         2.2562   -0.8810    1.3899 HC        1 <0>        0.03854
     24 H14         2.6532   -1.2170   -0.2950 HC        1 <0>        0.03854
     25 H15         1.9030   -2.4702    0.6951 HC        1 <0>        0.03854
     26 H16         1.2543    1.0886    0.5240 HC        1 <0>        0.04089
     27 H17         1.2597    0.7515   -1.1806 HC        1 <0>        0.04089
     28 H18        -1.2488    1.4186    0.4741 HC        1 <0>        0.04295
     29 H19        -1.5409   -0.8616    0.8036 H1        1 <0>        0.03072
     30 H20        -1.3776   -2.7199    1.9894 HO        1 <0>        0.39685
@<TRIPOS>BOND
     1    1    7 1
     2    2    7 1
     3    3    8 1
     4    4    9 1
     5    5    9 1
     6    6    7 1
     7    6    9 1
     8    8    9 1
     9    8   10 1
    10    1   11 1
    11    1   12 1
    12    1   13 1
    13    2   14 1
    14    2   15 1
    15    2   16 1
    16    3   17 1
    17    3   18 1
    18    3   19 1
    19    4   20 1
    20    4   21 1
    21    4   22 1
    22    5   23 1
    23    5   24 1
    24    5   25 1
    25    6   26 1
    26    6   27 1
    27    7   28 1
    28    8   29 1
    29   10   30 1
@<TRIPOS>SUBSTRUCTURE
     1 <0>         1 GROUP 0 A     ****
