@<TRIPOS>MOLECULE
AlkEthOH_c1007
   17    16     1     0     0
SMALL
USER_CHARGES

@<TRIPOS>ATOM
      1 C1          1.5206    0.5812    1.4786 CT        1 <0>       -0.08936
      2 C2          0.6156    1.3963    0.5674 CT        1 <0>       -0.10424
      3 C3         -0.6272   -1.5511   -1.2393 CT        1 <0>        0.32849
      4 C4         -0.4534    0.5426   -0.1171 CT        1 <0>        0.33033
      5 O1         -0.7199   -2.4919   -0.1789 OH        1 <0>       -0.63620
      6 O2         -1.2560    1.4217   -0.9014 OH        1 <0>       -0.63458
      7 O3          0.2033   -0.4394   -0.9198 OS        1 <0>       -0.40184
      8 H1          0.9262    0.0761    2.2465 HC        1 <0>        0.04246
      9 H2          2.2538    1.2163    1.9853 HC        1 <0>        0.04246
     10 H3          2.0609   -0.1829    0.9108 HC        1 <0>        0.04246
     11 H4          1.2328    1.8921   -0.1924 HC        1 <0>        0.05186
     12 H5          0.1351    2.1950    1.1452 HC        1 <0>        0.05186
     13 H6         -0.2025   -2.0542   -2.1137 H2        1 <0>        0.04865
     14 H7         -1.6343   -1.2160   -1.5074 H2        1 <0>        0.04865
     15 H8         -1.0820    0.0670    0.6461 H2        1 <0>        0.05689
     16 H9         -1.3008   -3.2098   -0.4827 HO        1 <0>        0.41006
     17 H10        -1.6504    2.0710   -0.2948 HO        1 <0>        0.41205
@<TRIPOS>BOND
     1    1    2 1
     2    2    4 1
     3    3    5 1
     4    3    7 1
     5    4    6 1
     6    4    7 1
     7    1    8 1
     8    1    9 1
     9    1   10 1
    10    2   11 1
    11    2   12 1
    12    3   13 1
    13    3   14 1
    14    4   15 1
    15    5   16 1
    16    6   17 1
@<TRIPOS>SUBSTRUCTURE
     1 <0>         1 GROUP 0 A     ****
