@<TRIPOS>MOLECULE
AlkEthOH_c324
   24    23     1     0     0
SMALL
USER_CHARGES

@<TRIPOS>ATOM
      1 C1         -0.7074   -1.3065    1.7380 CT        1 <0>       -0.09097
      2 C2         -2.2884   -0.7070   -0.1092 CT        1 <0>       -0.09097
      3 C3          1.5955   -1.0347   -0.3355 CT        1 <0>       -0.09282
      4 C4          0.2578    1.1031   -0.0314 CT        1 <0>       -0.07966
      5 C5          1.2006    1.9763   -0.8544 CT        1 <0>        0.13185
      6 C6         -0.8791   -1.2117    0.2195 CT        1 <0>       -0.06123
      7 C7          0.2207   -0.3688   -0.4905 CT        1 <0>       -0.05657
      8 O1          1.1385    3.3080   -0.3579 OH        1 <0>       -0.60330
      9 H1         -0.7590   -0.3227    2.2146 HC        1 <0>        0.03449
     10 H2          0.2467   -1.7692    2.0061 HC        1 <0>        0.03449
     11 H3         -1.5011   -1.9239    2.1735 HC        1 <0>        0.03449
     12 H4         -2.4240    0.3150    0.2618 HC        1 <0>        0.03449
     13 H5         -3.0497   -1.3346    0.3657 HC        1 <0>        0.03449
     14 H6         -2.4782   -0.6918   -1.1868 HC        1 <0>        0.03449
     15 H7          1.9129   -1.0696    0.7113 HC        1 <0>        0.03399
     16 H8          1.5807   -2.0589   -0.7227 HC        1 <0>        0.03399
     17 H9          2.3609   -0.4922   -0.8991 HC        1 <0>        0.03399
     18 H10         0.5499    1.1717    1.0238 HC        1 <0>        0.05641
     19 H11        -0.7439    1.5442   -0.0881 HC        1 <0>        0.05641
     20 H12         0.9047    1.9854   -1.9080 H1        1 <0>        0.02032
     21 H13         2.2361    1.6344   -0.7740 H1        1 <0>        0.02032
     22 H14        -0.8152   -2.2337   -0.1789 HC        1 <0>        0.04108
     23 H15        -0.0137   -0.3784   -1.5641 HC        1 <0>        0.04238
     24 H16         1.7463    3.8361   -0.8996 HO        1 <0>        0.39784
@<TRIPOS>BOND
     1    1    6 1
     2    2    6 1
     3    3    7 1
     4    4    5 1
     5    4    7 1
     6    5    8 1
     7    6    7 1
     8    1    9 1
     9    1   10 1
    10    1   11 1
    11    2   12 1
    12    2   13 1
    13    2   14 1
    14    3   15 1
    15    3   16 1
    16    3   17 1
    17    4   18 1
    18    4   19 1
    19    5   20 1
    20    5   21 1
    21    6   22 1
    22    7   23 1
    23    8   24 1
@<TRIPOS>SUBSTRUCTURE
     1 <0>         1 GROUP 0 A     ****
