@<TRIPOS>MOLECULE
AlkEthOH_c736
   30    29     1     0     0
SMALL
USER_CHARGES

@<TRIPOS>ATOM
      1 C1          0.6882   -0.3016   -0.3829 CT        1 <0>       -0.09442
      2 C2         -2.9157   -1.1710   -2.7621 CT        1 <0>       -0.08691
      3 C3         -1.6361   -2.2033   -0.8668 CT        1 <0>       -0.08691
      4 C4         -1.3623   -3.0776   -3.1879 CT        1 <0>       -0.08691
      5 C5          2.1528   -0.5190   -2.3975 CT        1 <0>       -0.08426
      6 C6         -0.3780   -0.8427   -2.6160 CT        1 <0>       -0.06656
      7 C7          2.6924   -1.4636   -3.4669 CT        1 <0>        0.13140
      8 C8          0.8699   -1.0375   -1.7177 CT        1 <0>       -0.06035
      9 C9         -1.5759   -1.7995   -2.3509 CT        1 <0>       -0.05376
     10 O1          3.8820   -0.9045   -4.0099 OH        1 <0>       -0.60319
     11 H1          0.5329    0.7699   -0.5499 HC        1 <0>        0.03515
     12 H2          1.5680   -0.4091    0.2575 HC        1 <0>        0.03515
     13 H3         -0.1791   -0.6842    0.1665 HC        1 <0>        0.03515
     14 H4         -2.9031   -0.8725   -3.8168 HC        1 <0>        0.03380
     15 H5         -3.1298   -0.2752   -2.1690 HC        1 <0>        0.03380
     16 H6         -3.7488   -1.8698   -2.6361 HC        1 <0>        0.03380
     17 H7         -0.6912   -2.6558   -0.5443 HC        1 <0>        0.03380
     18 H8         -2.4266   -2.9344   -0.6713 HC        1 <0>        0.03380
     19 H9         -1.8201   -1.3324   -0.2278 HC        1 <0>        0.03380
     20 H10        -0.4157   -3.5672   -2.9323 HC        1 <0>        0.03380
     21 H11        -2.1669   -3.8015   -3.0170 HC        1 <0>        0.03380
     22 H12        -1.3393   -2.8500   -4.2597 HC        1 <0>        0.03380
     23 H13         2.9397   -0.3739   -1.6452 HC        1 <0>        0.05559
     24 H14         1.9821    0.4736   -2.8344 HC        1 <0>        0.05559
     25 H15        -0.7284    0.1946   -2.5204 HC        1 <0>        0.04170
     26 H16        -0.0985   -0.9457   -3.6721 HC        1 <0>        0.04170
     27 H17         2.9350   -2.4400   -3.0355 H1        1 <0>        0.01997
     28 H18         1.9796   -1.6039   -4.2835 H1        1 <0>        0.01997
     29 H19         1.0201   -2.0976   -1.4885 HC        1 <0>        0.04963
     30 H20         4.1999   -1.5258   -4.6844 HO        1 <0>        0.39807
@<TRIPOS>BOND
     1    1    8 1
     2    2    9 1
     3    3    9 1
     4    4    9 1
     5    5    7 1
     6    5    8 1
     7    6    8 1
     8    6    9 1
     9    7   10 1
    10    1   11 1
    11    1   12 1
    12    1   13 1
    13    2   14 1
    14    2   15 1
    15    2   16 1
    16    3   17 1
    17    3   18 1
    18    3   19 1
    19    4   20 1
    20    4   21 1
    21    4   22 1
    22    5   23 1
    23    5   24 1
    24    6   25 1
    25    6   26 1
    26    7   27 1
    27    7   28 1
    28    8   29 1
    29   10   30 1
@<TRIPOS>SUBSTRUCTURE
     1 <0>         1 GROUP 0 A     ****
