@<TRIPOS>MOLECULE
AlkEthOH_c681
   26    25     1     0     0
SMALL
USER_CHARGES

@<TRIPOS>ATOM
      1 C1         -2.4892   -0.9904    2.4388 CT        1 <0>       -0.13055
      2 C2          1.4998   -0.1411   -3.1316 CT        1 <0>       -0.13055
      3 C3         -0.8692    0.5777    1.3159 CT        1 <0>       -0.08509
      4 C4          0.3299    0.2524   -0.9317 CT        1 <0>       -0.08509
      5 C5         -1.2538   -0.8852    1.5532 CT        1 <0>        0.14233
      6 C6          1.6312    0.4317   -1.7260 CT        1 <0>        0.14233
      7 C7          0.4236    0.7812    0.5088 CT        1 <0>        0.14541
      8 O1         -0.1716   -1.5569    2.1905 OH        1 <0>       -0.59981
      9 O2          2.6869   -0.2455   -1.0503 OH        1 <0>       -0.59981
     10 O3          0.7035    2.1828    0.4807 OH        1 <0>       -0.60992
     11 H1         -2.3247   -0.4965    3.4028 HC        1 <0>        0.04179
     12 H2         -3.3630   -0.5411    1.9572 HC        1 <0>        0.04179
     13 H3         -2.7146   -2.0395    2.6582 HC        1 <0>        0.04179
     14 H4          1.2352   -1.2038   -3.0995 HC        1 <0>        0.04179
     15 H5          2.4543   -0.0712   -3.6643 HC        1 <0>        0.04179
     16 H6          0.7399    0.3939   -3.7093 HC        1 <0>        0.04179
     17 H7         -1.6959    1.1058    0.8229 HC        1 <0>        0.05234
     18 H8         -0.7341    1.0783    2.2847 HC        1 <0>        0.05234
     19 H9         -0.4770    0.7766   -1.4589 HC        1 <0>        0.05234
     20 H10         0.0768   -0.8137   -0.9053 HC        1 <0>        0.05234
     21 H11        -1.4535   -1.3877    0.6016 H1        1 <0>        0.04036
     22 H12         1.8956    1.4928   -1.7904 H1        1 <0>        0.04036
     23 H13         1.2601    0.3034    1.0300 H1        1 <0>        0.07481
     24 H14        -0.4455   -2.4809    2.3011 HO        1 <0>        0.39831
     25 H15         3.4918   -0.0903   -1.5688 HO        1 <0>        0.39831
     26 H16         0.8083    2.4577    1.4035 HO        1 <0>        0.39850
@<TRIPOS>BOND
     1    1    5 1
     2    2    6 1
     3    3    5 1
     4    3    7 1
     5    4    6 1
     6    4    7 1
     7    5    8 1
     8    6    9 1
     9    7   10 1
    10    1   11 1
    11    1   12 1
    12    1   13 1
    13    2   14 1
    14    2   15 1
    15    2   16 1
    16    3   17 1
    17    3   18 1
    18    4   19 1
    19    4   20 1
    20    5   21 1
    21    6   22 1
    22    7   23 1
    23    8   24 1
    24    9   25 1
    25   10   26 1
@<TRIPOS>SUBSTRUCTURE
     1 <0>         1 GROUP 0 A     ****
