@<TRIPOS>MOLECULE
AlkEthOH_c1112
   26    25     1     0     0
SMALL
USER_CHARGES

@<TRIPOS>ATOM
      1 C1          1.0036   -2.2757    2.6828 CT        1 <0>       -0.09209
      2 C2         -2.3686    1.0703   -1.5372 CT        1 <0>       -0.11908
      3 C3         -0.7444   -0.7298   -2.1225 CT        1 <0>       -0.11908
      4 C4          0.7705   -1.5455    1.3696 CT        1 <0>       -0.08019
      5 C5          1.1438   -0.0662    1.4789 CT        1 <0>       -0.07781
      6 C6          0.8669    0.7006    0.1810 CT        1 <0>        0.34710
      7 C7         -0.8961    0.6552   -1.4909 CT        1 <0>        0.34587
      8 O1          1.2998    2.0513    0.3332 OH        1 <0>       -0.61183
      9 O2         -0.1334    1.5839   -2.2596 OH        1 <0>       -0.63940
     10 O3         -0.5296    0.6257   -0.1058 OS        1 <0>       -0.45972
     11 H1          2.0485   -2.1919    2.9984 HC        1 <0>        0.03372
     12 H2          0.7665   -3.3385    2.5726 HC        1 <0>        0.03372
     13 H3          0.3705   -1.8668    3.4768 HC        1 <0>        0.03372
     14 H4         -2.5008    2.0621   -1.0887 HC        1 <0>        0.05374
     15 H5         -2.7364    1.1294   -2.5670 HC        1 <0>        0.05374
     16 H6         -2.9966    0.3758   -0.9688 HC        1 <0>        0.05374
     17 H7          0.2988   -1.0621   -2.1079 HC        1 <0>        0.05374
     18 H8         -1.0775   -0.7337   -3.1654 HC        1 <0>        0.05374
     19 H9         -1.3642   -1.4694   -1.6032 HC        1 <0>        0.05374
     20 H10        -0.2829   -1.6508    1.0860 HC        1 <0>        0.04129
     21 H11         1.3675   -2.0216    0.5831 HC        1 <0>        0.04129
     22 H12         2.2033    0.0379    1.7438 HC        1 <0>        0.06440
     23 H13         0.5727    0.3877    2.2993 HC        1 <0>        0.06440
     24 H14         1.4563    0.2550   -0.6255 H2        1 <0>        0.04176
     25 H15         2.2529    2.0459    0.5233 HO        1 <0>        0.41285
     26 H16        -0.4613    1.5661   -3.1743 HO        1 <0>        0.41664
@<TRIPOS>BOND
     1    1    4 1
     2    2    7 1
     3    3    7 1
     4    4    5 1
     5    5    6 1
     6    6    8 1
     7    6   10 1
     8    7    9 1
     9    7   10 1
    10    1   11 1
    11    1   12 1
    12    1   13 1
    13    2   14 1
    14    2   15 1
    15    2   16 1
    16    3   17 1
    17    3   18 1
    18    3   19 1
    19    4   20 1
    20    4   21 1
    21    5   22 1
    22    5   23 1
    23    6   24 1
    24    8   25 1
    25    9   26 1
@<TRIPOS>SUBSTRUCTURE
     1 <0>         1 GROUP 0 A     ****
