@<TRIPOS>MOLECULE
AlkEthOH_c977
   21    20     1     0     0
SMALL
USER_CHARGES

@<TRIPOS>ATOM
      1 C1          0.9450   -0.4908    0.3468 CT        1 <0>       -0.09166
      2 C2          3.4203    2.0803   -1.1965 CT        1 <0>       -0.08914
      3 C3          3.8314    2.1294    2.9931 CT        1 <0>        0.11521
      4 C4          2.1271    0.0762   -0.4262 CT        1 <0>       -0.07485
      5 C5          2.4205    2.1121    1.1138 CT        1 <0>        0.12846
      6 C6          2.2498    1.6090   -0.3259 CT        1 <0>       -0.06052
      7 O1          3.6340    1.6327    1.6760 OS        1 <0>       -0.41814
      8 H1          1.0057   -0.2448    1.4109 HC        1 <0>        0.03192
      9 H2         -0.0021   -0.1082   -0.0460 HC        1 <0>        0.03192
     10 H3          0.9304   -1.5822    0.2616 HC        1 <0>        0.03192
     11 H4          4.3733    1.6680   -0.8485 HC        1 <0>        0.03762
     12 H5          3.4981    3.1724   -1.1848 HC        1 <0>        0.03762
     13 H6          3.2787    1.7693   -2.2370 HC        1 <0>        0.03762
     14 H7          4.7714    1.7411    3.3926 H1        1 <0>        0.03142
     15 H8          2.9977    1.8204    3.6288 H1        1 <0>        0.03142
     16 H9          3.8758    3.2205    2.9586 H1        1 <0>        0.03142
     17 H10         2.0092   -0.2028   -1.4809 HC        1 <0>        0.04583
     18 H11         3.0482   -0.4063   -0.0781 HC        1 <0>        0.04583
     19 H12         1.5903    1.7818    1.7457 H1        1 <0>        0.02574
     20 H13         2.4404    3.2072    1.1356 H1        1 <0>        0.02574
     21 H14         1.3337    2.0583   -0.7308 HC        1 <0>        0.04462
@<TRIPOS>BOND
     1    1    4 1
     2    2    6 1
     3    3    7 1
     4    4    6 1
     5    5    6 1
     6    5    7 1
     7    1    8 1
     8    1    9 1
     9    1   10 1
    10    2   11 1
    11    2   12 1
    12    2   13 1
    13    3   14 1
    14    3   15 1
    15    3   16 1
    16    4   17 1
    17    4   18 1
    18    5   19 1
    19    5   20 1
    20    6   21 1
@<TRIPOS>SUBSTRUCTURE
     1 <0>         1 GROUP 0 A     ****
