@<TRIPOS>MOLECULE
AlkEthOH_c746
   28    27     1     0     0
SMALL
USER_CHARGES

@<TRIPOS>ATOM
      1 C1          0.4755    0.8174   -0.5531 CT        1 <0>       -0.10871
      2 C2         -0.0460    1.1128   -4.6939 CT        1 <0>       -0.10772
      3 C3         -2.4689    0.9883   -4.0431 CT        1 <0>       -0.10772
      4 C4         -0.9605    2.6626   -2.9342 CT        1 <0>       -0.10772
      5 C5          1.4087   -0.7635   -2.2846 CT        1 <0>       -0.09674
      6 C6          2.8513   -0.5989   -1.8196 CT        1 <0>        0.13309
      7 C7          0.5699    0.4916   -2.0374 CT        1 <0>        0.14105
      8 C8         -1.0500    1.2682   -3.5525 CT        1 <0>        0.15154
      9 O1          3.5620   -1.7977   -2.0991 OH        1 <0>       -0.59953
     10 O2         -0.7469    0.3091   -2.5505 OS        1 <0>       -0.41839
     11 H1          0.0379   -0.0129    0.0092 HC        1 <0>        0.04163
     12 H2         -0.1318    1.7136   -0.3845 HC        1 <0>        0.04163
     13 H3          1.4697    1.0302   -0.1457 HC        1 <0>        0.04163
     14 H4          0.9737    1.3129   -4.3458 HC        1 <0>        0.04312
     15 H5         -0.0757    0.1059   -5.1229 HC        1 <0>        0.04312
     16 H6         -0.2473    1.8356   -5.4928 HC        1 <0>        0.04312
     17 H7         -3.1926    1.0986   -3.2275 HC        1 <0>        0.04312
     18 H8         -2.5618   -0.0436   -4.4007 HC        1 <0>        0.04312
     19 H9         -2.7562    1.6639   -4.8553 HC        1 <0>        0.04312
     20 H10        -1.6806    2.7743   -2.1155 HC        1 <0>        0.04312
     21 H11         0.0415    2.8670   -2.5434 HC        1 <0>        0.04312
     22 H12        -1.2101    3.4331   -3.6727 HC        1 <0>        0.04312
     23 H13         0.9605   -1.6259   -1.7757 HC        1 <0>        0.06631
     24 H14         1.4172   -1.0101   -3.3543 HC        1 <0>        0.06631
     25 H15         3.3453    0.2250   -2.3438 H1        1 <0>        0.01851
     26 H16         2.8941   -0.4131   -0.7417 H1        1 <0>        0.01851
     27 H17         1.0115    1.3445   -2.5644 H1        1 <0>        0.03971
     28 H18         4.4730   -1.6611   -1.7924 HO        1 <0>        0.39853
@<TRIPOS>BOND
     1    1    7 1
     2    2    8 1
     3    3    8 1
     4    4    8 1
     5    5    6 1
     6    5    7 1
     7    6    9 1
     8    7   10 1
     9    8   10 1
    10    1   11 1
    11    1   12 1
    12    1   13 1
    13    2   14 1
    14    2   15 1
    15    2   16 1
    16    3   17 1
    17    3   18 1
    18    3   19 1
    19    4   20 1
    20    4   21 1
    21    4   22 1
    22    5   23 1
    23    5   24 1
    24    6   25 1
    25    6   26 1
    26    7   27 1
    27    9   28 1
@<TRIPOS>SUBSTRUCTURE
     1 <0>         1 GROUP 0 A     ****
