@<TRIPOS>MOLECULE
AlkEthOH_c1057
   25    24     1     0     0
SMALL
USER_CHARGES

@<TRIPOS>ATOM
      1 C1         -0.0213   -0.0248    1.2296 CT        1 <0>       -0.09184
      2 C2         -2.8980    4.1067    1.1055 CT        1 <0>       -0.12619
      3 C3         -1.3784    0.5370    1.6274 CT        1 <0>       -0.08120
      4 C4         -1.5225    2.0013    1.1967 CT        1 <0>       -0.06376
      5 C5         -3.2111    2.5518    3.0818 CT        1 <0>       -0.11092
      6 C6         -2.2317    3.2384    4.0255 CT        1 <0>        0.13612
      7 C7         -2.8712    2.6485    1.5819 CT        1 <0>        0.15447
      8 O1         -2.7012    3.0790    5.3594 OH        1 <0>       -0.60265
      9 O2         -3.9209    1.9599    0.8873 OH        1 <0>       -0.59929
     10 H1          0.7905    0.5612    1.6722 HC        1 <0>        0.03197
     11 H2          0.1029   -0.0187    0.1420 HC        1 <0>        0.03197
     12 H3          0.0773   -1.0581    1.5766 HC        1 <0>        0.03197
     13 H4         -3.8482    4.5856    1.3692 HC        1 <0>        0.04306
     14 H5         -2.7666    4.1886    0.0223 HC        1 <0>        0.04306
     15 H6         -2.1131    4.6921    1.5980 HC        1 <0>        0.04306
     16 H7         -2.1638   -0.0728    1.1675 HC        1 <0>        0.04908
     17 H8         -1.4868    0.4464    2.7132 HC        1 <0>        0.04908
     18 H9         -1.4157    2.0384    0.1039 HC        1 <0>        0.04632
     19 H10        -0.6919    2.5862    1.6101 HC        1 <0>        0.04632
     20 H11        -4.2166    2.9626    3.2528 HC        1 <0>        0.06179
     21 H12        -3.3207    1.4992    3.3760 HC        1 <0>        0.06179
     22 H13        -2.1599    4.3093    3.8175 H1        1 <0>        0.02384
     23 H14        -1.2354    2.7924    3.9626 H1        1 <0>        0.02384
     24 H15        -2.0599    3.5246    5.9354 HO        1 <0>        0.39997
     25 H16        -4.7416    2.4097    1.1308 HO        1 <0>        0.39814
@<TRIPOS>BOND
     1    1    3 1
     2    2    7 1
     3    3    4 1
     4    4    7 1
     5    5    6 1
     6    5    7 1
     7    6    8 1
     8    7    9 1
     9    1   10 1
    10    1   11 1
    11    1   12 1
    12    2   13 1
    13    2   14 1
    14    2   15 1
    15    3   16 1
    16    3   17 1
    17    4   18 1
    18    4   19 1
    19    5   20 1
    20    5   21 1
    21    6   22 1
    22    6   23 1
    23    8   24 1
    24    9   25 1
@<TRIPOS>SUBSTRUCTURE
     1 <0>         1 GROUP 0 A     ****
