@<TRIPOS>MOLECULE
AlkEthOH_c909
   25    24     1     0     0
SMALL
USER_CHARGES

@<TRIPOS>ATOM
      1 C1         -2.0410    0.8645    1.8478 CT        1 <0>       -0.09522
      2 C2          1.6930   -1.2253    0.1447 CT        1 <0>       -0.12178
      3 C3          1.0802   -0.3077   -2.1032 CT        1 <0>       -0.12178
      4 C4          0.5069    1.6396    0.3005 CT        1 <0>       -0.12579
      5 C5         -1.0693   -0.1293    1.2159 CT        1 <0>       -0.10946
      6 C6          0.5327   -0.7286   -0.7289 CT        1 <0>        0.16695
      7 C7         -0.3237    0.3940   -0.0424 CT        1 <0>        0.17212
      8 O1         -0.3327   -1.8518   -0.9657 OH        1 <0>       -0.59283
      9 O2         -1.3199    0.8266   -0.9834 OH        1 <0>       -0.59249
     10 H1         -2.7873    1.2110    1.1276 HC        1 <0>        0.03380
     11 H2         -2.5592    0.4298    2.7075 HC        1 <0>        0.03380
     12 H3         -1.4935    1.7453    2.1993 HC        1 <0>        0.03380
     13 H4          1.3470   -1.5362    1.1354 HC        1 <0>        0.04469
     14 H5          2.1560   -2.1156   -0.2983 HC        1 <0>        0.04469
     15 H6          2.4734   -0.4682    0.2633 HC        1 <0>        0.04469
     16 H7          0.2698    0.0522   -2.7488 HC        1 <0>        0.04469
     17 H8          1.5759   -1.1329   -2.6221 HC        1 <0>        0.04469
     18 H9          1.7843    0.5266   -2.0149 HC        1 <0>        0.04469
     19 H10         1.0397    2.0224   -0.5754 HC        1 <0>        0.04367
     20 H11         1.2354    1.4411    1.0921 HC        1 <0>        0.04367
     21 H12        -0.1336    2.4674    0.6239 HC        1 <0>        0.04367
     22 H13        -0.3503   -0.4379    1.9828 HC        1 <0>        0.06158
     23 H14        -1.6583   -1.0157    0.9506 HC        1 <0>        0.06158
     24 H15         0.2093   -2.5118   -1.4179 HO        1 <0>        0.39858
     25 H16        -1.8356    1.5059   -0.5289 HO        1 <0>        0.39799
@<TRIPOS>BOND
     1    1    5 1
     2    2    6 1
     3    3    6 1
     4    4    7 1
     5    5    7 1
     6    6    7 1
     7    6    8 1
     8    7    9 1
     9    1   10 1
    10    1   11 1
    11    1   12 1
    12    2   13 1
    13    2   14 1
    14    2   15 1
    15    3   16 1
    16    3   17 1
    17    3   18 1
    18    4   19 1
    19    4   20 1
    20    4   21 1
    21    5   22 1
    22    5   23 1
    23    8   24 1
    24    9   25 1
@<TRIPOS>SUBSTRUCTURE
     1 <0>         1 GROUP 0 A     ****
