@<TRIPOS>MOLECULE
AlkEthOH_c1008
   14    13     1     0     0
SMALL
USER_CHARGES

@<TRIPOS>ATOM
      1 C1          0.4048   -0.7298    0.7083 CT        1 <0>       -0.09227
      2 C2          2.5420    1.6208    2.9190 CT        1 <0>       -0.09223
      3 C3          1.6372   -0.1820    1.4100 CT        1 <0>       -0.07989
      4 C4          1.3160    1.0885    2.1945 CT        1 <0>       -0.07989
      5 H1         -0.0187    0.0118    0.0234 HC        1 <0>        0.03226
      6 H2          0.6479   -1.6293    0.1339 HC        1 <0>        0.03226
      7 H3         -0.3638   -0.9927    1.4420 HC        1 <0>        0.03226
      8 H4          2.9465    0.8722    3.6077 HC        1 <0>        0.03226
      9 H5          2.2823    2.5118    3.4994 HC        1 <0>        0.03226
     10 H6          3.3288    1.8955    2.2091 HC        1 <0>        0.03226
     11 H7          2.0358   -0.9470    2.0866 HC        1 <0>        0.03768
     12 H8          2.4129    0.0268    0.6640 HC        1 <0>        0.03768
     13 H9          0.9367    1.8604    1.5146 HC        1 <0>        0.03768
     14 H10         0.5258    0.8846    2.9266 HC        1 <0>        0.03768
@<TRIPOS>BOND
     1    1    3 1
     2    2    4 1
     3    3    4 1
     4    1    5 1
     5    1    6 1
     6    1    7 1
     7    2    8 1
     8    2    9 1
     9    2   10 1
    10    3   11 1
    11    3   12 1
    12    4   13 1
    13    4   14 1
@<TRIPOS>SUBSTRUCTURE
     1 <0>         1 GROUP 0 A     ****
