@<TRIPOS>MOLECULE
AlkEthOH_c328
   21    20     1     0     0
SMALL
USER_CHARGES

@<TRIPOS>ATOM
      1 C1          0.2807    0.8790   -0.7444 CT        1 <0>       -0.09010
      2 C2         -0.4068    3.2163   -1.3080 CT        1 <0>       -0.09010
      3 C3         -0.0192    1.6440    2.2492 CT        1 <0>       -0.12178
      4 C4          0.1974    4.6348    2.3397 CT        1 <0>        0.11741
      5 C5         -0.4527    2.1211   -0.2344 CT        1 <0>       -0.06388
      6 C6          0.1204    2.6388    1.1017 CT        1 <0>        0.14127
      7 O1         -0.5788    3.8302    1.4669 OS        1 <0>       -0.42214
      8 H1          1.3438    1.0859   -0.9074 HC        1 <0>        0.03604
      9 H2          0.1973    0.0480   -0.0376 HC        1 <0>        0.03604
     10 H3         -0.1462    0.5370   -1.6936 HC        1 <0>        0.03604
     11 H4          0.6219    3.5300   -1.5136 HC        1 <0>        0.03604
     12 H5         -0.9595    4.1039   -0.9810 HC        1 <0>        0.03604
     13 H6         -0.8508    2.8684   -2.2469 HC        1 <0>        0.03604
     14 H7         -1.0600    1.3510    2.4113 HC        1 <0>        0.04187
     15 H8          0.5584    0.7363    2.0424 HC        1 <0>        0.04187
     16 H9          0.3791    2.0634    3.1795 HC        1 <0>        0.04187
     17 H10        -0.3628    5.5362    2.6003 H1        1 <0>        0.03087
     18 H11         1.1359    4.9053    1.8492 H1        1 <0>        0.03087
     19 H12         0.4136    4.0676    3.2480 H1        1 <0>        0.03087
     20 H13        -1.5100    1.8637   -0.0871 HC        1 <0>        0.05900
     21 H14         1.1771    2.9031    0.9762 H1        1 <0>        0.03586
@<TRIPOS>BOND
     1    1    5 1
     2    2    5 1
     3    3    6 1
     4    4    7 1
     5    5    6 1
     6    6    7 1
     7    1    8 1
     8    1    9 1
     9    1   10 1
    10    2   11 1
    11    2   12 1
    12    2   13 1
    13    3   14 1
    14    3   15 1
    15    3   16 1
    16    4   17 1
    17    4   18 1
    18    4   19 1
    19    5   20 1
    20    6   21 1
@<TRIPOS>SUBSTRUCTURE
     1 <0>         1 GROUP 0 A     ****
