@<TRIPOS>MOLECULE
AlkEthOH_c301
   22    21     1     0     0
SMALL
USER_CHARGES

@<TRIPOS>ATOM
      1 C1         -0.4129    0.0272   -2.1582 CT        1 <0>       -0.08825
      2 C2         -1.2257   -1.4237   -0.2913 CT        1 <0>       -0.08825
      3 C3         -0.6631    1.5234    0.5961 CT        1 <0>       -0.12555
      4 C4          0.9861   -0.1121    1.5321 CT        1 <0>        0.09886
      5 C5         -0.0535   -0.5724   -0.7898 CT        1 <0>       -0.05374
      6 C6          0.4236    0.5013    0.2354 CT        1 <0>        0.16328
      7 O1          2.0199   -1.0442    1.2366 OH        1 <0>       -0.58759
      8 O2          1.4976    1.2257   -0.3873 OH        1 <0>       -0.58604
      9 H1         -1.2518    0.7259   -2.0821 HC        1 <0>        0.03569
     10 H2         -0.6744   -0.7482   -2.8851 HC        1 <0>        0.03569
     11 H3          0.4388    0.5835   -2.5657 HC        1 <0>        0.03569
     12 H4         -2.0974   -0.7924   -0.0855 HC        1 <0>        0.03569
     13 H5         -1.5344   -2.1606   -1.0385 HC        1 <0>        0.03569
     14 H6         -0.9778   -1.9539    0.6333 HC        1 <0>        0.03569
     15 H7         -1.0985    1.9916   -0.2914 HC        1 <0>        0.04412
     16 H8         -1.4752    1.0421    1.1546 HC        1 <0>        0.04412
     17 H9         -0.2755    2.3064    1.2557 HC        1 <0>        0.04412
     18 H10         1.4221    0.6646    2.1704 H1        1 <0>        0.02423
     19 H11         0.2074   -0.6296    2.1015 H1        1 <0>        0.02423
     20 H12         0.7900   -1.2505   -0.9803 HC        1 <0>        0.07805
     21 H13         2.3313   -1.3934    2.0868 HO        1 <0>        0.39840
     22 H14         1.8007    1.8656    0.2704 HO        1 <0>        0.39587
@<TRIPOS>BOND
     1    1    5 1
     2    2    5 1
     3    3    6 1
     4    4    6 1
     5    4    7 1
     6    5    6 1
     7    6    8 1
     8    1    9 1
     9    1   10 1
    10    1   11 1
    11    2   12 1
    12    2   13 1
    13    2   14 1
    14    3   15 1
    15    3   16 1
    16    3   17 1
    17    4   18 1
    18    4   19 1
    19    5   20 1
    20    7   21 1
    21    8   22 1
@<TRIPOS>SUBSTRUCTURE
     1 <0>         1 GROUP 0 A     ****
