@<TRIPOS>MOLECULE
AlkEthOH_c580
   27    26     1     0     0
SMALL
USER_CHARGES

@<TRIPOS>ATOM
      1 C1         -2.7315   -4.0719   -3.8635 CT        1 <0>       -0.10745
      2 C2         -3.0500   -4.8938   -1.5025 CT        1 <0>       -0.10745
      3 C3         -1.0214    0.8045   -2.3901 CT        1 <0>       -0.08581
      4 C4          0.4792   -1.2018   -2.4664 CT        1 <0>       -0.08581
      5 C5         -0.7910   -0.6603   -0.3744 CT        1 <0>       -0.08581
      6 C6         -2.0056   -1.5227   -2.4157 CT        1 <0>        0.13491
      7 C7         -2.9432   -3.6776   -2.4098 CT        1 <0>        0.13803
      8 C8         -0.8419   -0.6460   -1.9115 CT        1 <0>       -0.05312
      9 O1         -1.8564   -2.8685   -1.9816 OS        1 <0>       -0.41913
     10 H1         -1.8268   -4.6756   -3.9836 HC        1 <0>        0.04255
     11 H2         -3.5878   -4.6477   -4.2307 HC        1 <0>        0.04255
     12 H3         -2.6500   -3.1870   -4.5044 HC        1 <0>        0.04255
     13 H4         -2.1529   -5.5171   -1.5663 HC        1 <0>        0.04255
     14 H5         -3.9184   -5.5010   -1.7796 HC        1 <0>        0.04255
     15 H6         -3.1954   -4.5951   -0.4585 HC        1 <0>        0.04255
     16 H7         -1.9565    1.2315   -2.0109 HC        1 <0>        0.03699
     17 H8         -1.0512    0.8581   -3.4844 HC        1 <0>        0.03699
     18 H9         -0.2000    1.4454   -2.0517 HC        1 <0>        0.03699
     19 H10         0.6395   -2.2368   -2.1439 HC        1 <0>        0.03699
     20 H11         0.4858   -1.1896   -3.5621 HC        1 <0>        0.03699
     21 H12         1.3337   -0.6084   -2.1219 HC        1 <0>        0.03699
     22 H13        -0.6635   -1.6762    0.0154 HC        1 <0>        0.03699
     23 H14        -1.7152   -0.2565    0.0546 HC        1 <0>        0.03699
     24 H15         0.0413   -0.0524   -0.0020 HC        1 <0>        0.03699
     25 H16        -2.0458   -1.5219   -3.5109 H1        1 <0>        0.02543
     26 H17        -2.9643   -1.1489   -2.0389 H1        1 <0>        0.02543
     27 H18        -3.8539   -3.0761   -2.3232 H1        1 <0>        0.03257
@<TRIPOS>BOND
     1    1    7 1
     2    2    7 1
     3    3    8 1
     4    4    8 1
     5    5    8 1
     6    6    8 1
     7    6    9 1
     8    7    9 1
     9    1   10 1
    10    1   11 1
    11    1   12 1
    12    2   13 1
    13    2   14 1
    14    2   15 1
    15    3   16 1
    16    3   17 1
    17    3   18 1
    18    4   19 1
    19    4   20 1
    20    4   21 1
    21    5   22 1
    22    5   23 1
    23    5   24 1
    24    6   25 1
    25    6   26 1
    26    7   27 1
@<TRIPOS>SUBSTRUCTURE
     1 <0>         1 GROUP 0 A     ****
