@<TRIPOS>MOLECULE
AlkEthOH_c1090
   30    29     1     0     0
SMALL
USER_CHARGES

@<TRIPOS>ATOM
      1 C1         -0.4668   -1.4780   -0.0585 CT        1 <0>       -0.09213
      2 C2         -0.6714   -2.8371   -4.2817 CT        1 <0>       -0.10688
      3 C3          1.3743   -1.1438   -6.2954 CT        1 <0>       -0.10721
      4 C4          0.1014    0.9941   -6.6392 CT        1 <0>       -0.10721
      5 C5          1.5400    0.7091   -4.6002 CT        1 <0>       -0.10721
      6 C6         -0.0548   -1.9738   -1.4359 CT        1 <0>       -0.08084
      7 C7         -0.5207   -1.0174   -2.5371 CT        1 <0>       -0.08944
      8 C8         -0.0767   -1.4806   -3.9284 CT        1 <0>        0.13847
      9 C9          0.6341    0.0022   -5.6074 CT        1 <0>        0.15263
     10 O1         -0.4824   -0.5335   -4.9130 OS        1 <0>       -0.42232
     11 H1         -1.5540   -1.3629   -0.0068 HC        1 <0>        0.03315
     12 H2         -0.0117   -0.5070    0.1614 HC        1 <0>        0.03315
     13 H3         -0.1624   -2.1848    0.7200 HC        1 <0>        0.03315
     14 H4         -1.7663   -2.8070   -4.2517 HC        1 <0>        0.04085
     15 H5         -0.3926   -3.1214   -5.3021 HC        1 <0>        0.04085
     16 H6         -0.3234   -3.6149   -3.5951 HC        1 <0>        0.04085
     17 H7          1.7581   -1.8580   -5.5582 HC        1 <0>        0.04238
     18 H8          0.7253   -1.6810   -6.9948 HC        1 <0>        0.04238
     19 H9          2.2448   -0.7715   -6.8475 HC        1 <0>        0.04238
     20 H10        -0.4304    1.8181   -6.1499 HC        1 <0>        0.04238
     21 H11        -0.6226    0.5124   -7.3063 HC        1 <0>        0.04238
     22 H12         0.9076    1.4152   -7.2486 HC        1 <0>        0.04238
     23 H13         1.0093    1.5312   -4.1065 HC        1 <0>        0.04238
     24 H14         1.9021    0.0199   -3.8304 HC        1 <0>        0.04238
     25 H15         2.4055    1.1568   -5.1018 HC        1 <0>        0.04238
     26 H16         1.0354   -2.0813   -1.4638 HC        1 <0>        0.03757
     27 H17        -0.4840   -2.9687   -1.6023 HC        1 <0>        0.03757
     28 H18        -1.6139   -0.9339   -2.5100 HC        1 <0>        0.05219
     29 H19        -0.1093   -0.0209   -2.3317 HC        1 <0>        0.05219
     30 H20         1.0160   -1.5470   -3.9681 H1        1 <0>        0.03920
@<TRIPOS>BOND
     1    1    6 1
     2    2    8 1
     3    3    9 1
     4    4    9 1
     5    5    9 1
     6    6    7 1
     7    7    8 1
     8    8   10 1
     9    9   10 1
    10    1   11 1
    11    1   12 1
    12    1   13 1
    13    2   14 1
    14    2   15 1
    15    2   16 1
    16    3   17 1
    17    3   18 1
    18    3   19 1
    19    4   20 1
    20    4   21 1
    21    4   22 1
    22    5   23 1
    23    5   24 1
    24    5   25 1
    25    6   26 1
    26    6   27 1
    27    7   28 1
    28    7   29 1
    29    8   30 1
@<TRIPOS>SUBSTRUCTURE
     1 <0>         1 GROUP 0 A     ****
