@<TRIPOS>MOLECULE
AlkEthOH_c918
   26    25     1     0     0
SMALL
USER_CHARGES

@<TRIPOS>ATOM
      1 C1         -0.7966   -0.4269   -2.3745 CT        1 <0>       -0.09106
      2 C2          1.9553    0.7842   -0.1406 CT        1 <0>       -0.09097
      3 C3          1.3974   -0.8711    1.6328 CT        1 <0>       -0.09097
      4 C4         -1.4438   -1.1014    0.5484 CT        1 <0>       -0.08802
      5 C5         -0.8642    1.2435    1.1587 CT        1 <0>       -0.08802
      6 C6         -0.9352    0.5936   -1.2507 CT        1 <0>       -0.07346
      7 C7          0.9745   -0.3287    0.2579 CT        1 <0>       -0.05516
      8 C8         -0.5389    0.0962    0.1747 CT        1 <0>       -0.04351
      9 H1         -1.3621   -1.3393   -2.1677 HC        1 <0>        0.03290
     10 H2         -1.1278   -0.0201   -3.3339 HC        1 <0>        0.03290
     11 H3          0.2548   -0.7131   -2.4850 HC        1 <0>        0.03290
     12 H4          1.8514    1.6438    0.5317 HC        1 <0>        0.03319
     13 H5          1.7726    1.1421   -1.1584 HC        1 <0>        0.03319
     14 H6          2.9956    0.4554   -0.0714 HC        1 <0>        0.03319
     15 H7          1.2722   -0.0995    2.4012 HC        1 <0>        0.03319
     16 H8          2.4512   -1.1623    1.6483 HC        1 <0>        0.03319
     17 H9          0.7939   -1.7319    1.9358 HC        1 <0>        0.03319
     18 H10        -1.2716   -1.9608   -0.1082 HC        1 <0>        0.03395
     19 H11        -2.5051   -0.8408    0.4809 HC        1 <0>        0.03395
     20 H12        -1.2474   -1.4415    1.5718 HC        1 <0>        0.03395
     21 H13        -0.2509    2.1270    0.9441 HC        1 <0>        0.03395
     22 H14        -1.9100    1.5584    1.0891 HC        1 <0>        0.03395
     23 H15        -0.6646    0.9573    2.1960 HC        1 <0>        0.03395
     24 H16        -0.3490    1.4825   -1.5141 HC        1 <0>        0.03715
     25 H17        -1.9807    0.9306   -1.2346 HC        1 <0>        0.03715
     26 H18         1.1286   -1.1543   -0.4495 HC        1 <0>        0.04533
@<TRIPOS>BOND
     1    1    6 1
     2    2    7 1
     3    3    7 1
     4    4    8 1
     5    5    8 1
     6    6    8 1
     7    7    8 1
     8    1    9 1
     9    1   10 1
    10    1   11 1
    11    2   12 1
    12    2   13 1
    13    2   14 1
    14    3   15 1
    15    3   16 1
    16    3   17 1
    17    4   18 1
    18    4   19 1
    19    4   20 1
    20    5   21 1
    21    5   22 1
    22    5   23 1
    23    6   24 1
    24    6   25 1
    25    7   26 1
@<TRIPOS>SUBSTRUCTURE
     1 <0>         1 GROUP 0 A     ****
