@<TRIPOS>MOLECULE
AlkEthOH_c263
   22    21     1     0     0
SMALL
USER_CHARGES

@<TRIPOS>ATOM
      1 C1          2.1096    0.8327   -1.1182 CT        1 <0>       -0.08871
      2 C2         -0.0391    0.0342   -2.1170 CT        1 <0>       -0.08871
      3 C3         -1.2716   -1.2708    2.0403 CT        1 <0>       -0.12892
      4 C4          0.6091    0.6307   -0.8664 CT        1 <0>       -0.09463
      5 C5         -1.1008   -0.4585    0.7604 CT        1 <0>        0.10476
      6 C6          0.3782   -0.2395    0.3931 CT        1 <0>        0.15323
      7 O1         -1.7368    0.8055    0.9357 OH        1 <0>       -0.61084
      8 O2          1.0466    0.3730    1.5006 OH        1 <0>       -0.59967
      9 H1          2.6153   -0.1214   -1.2986 HC        1 <0>        0.03599
     10 H2          2.5898    1.2978   -0.2504 HC        1 <0>        0.03599
     11 H3          2.2813    1.4788   -1.9860 HC        1 <0>        0.03599
     12 H4          0.3529   -0.9643   -2.3327 HC        1 <0>        0.03599
     13 H5         -1.1214   -0.0686   -1.9832 HC        1 <0>        0.03599
     14 H6          0.1339    0.6680   -2.9933 HC        1 <0>        0.03599
     15 H7         -0.7749   -0.7876    2.8870 HC        1 <0>        0.04743
     16 H8         -2.3292   -1.4179    2.2842 HC        1 <0>        0.04743
     17 H9         -0.8429   -2.2710    1.9132 HC        1 <0>        0.04743
     18 H10         0.1822    1.6276   -0.6963 HC        1 <0>        0.06500
     19 H11        -1.6124   -0.9792   -0.0560 H1        1 <0>        0.04021
     20 H12         0.8505   -1.2187    0.2474 H1        1 <0>        0.07440
     21 H13        -2.6718    0.6211    1.1142 HO        1 <0>        0.40423
     22 H14         0.6538    1.2521    1.6006 HO        1 <0>        0.41142
@<TRIPOS>BOND
     1    1    4 1
     2    2    4 1
     3    3    5 1
     4    4    6 1
     5    5    6 1
     6    5    7 1
     7    6    8 1
     8    1    9 1
     9    1   10 1
    10    1   11 1
    11    2   12 1
    12    2   13 1
    13    2   14 1
    14    3   15 1
    15    3   16 1
    16    3   17 1
    17    4   18 1
    18    5   19 1
    19    6   20 1
    20    7   21 1
    21    8   22 1
@<TRIPOS>SUBSTRUCTURE
     1 <0>         1 GROUP 0 A     ****
