@<TRIPOS>MOLECULE
AlkEthOH_c306
   29    28     1     0     0
SMALL
USER_CHARGES

@<TRIPOS>ATOM
      1 C1         -0.2002   -2.3194    1.4741 CT        1 <0>       -0.08706
      2 C2          0.5625   -2.3240   -0.9018 CT        1 <0>       -0.08706
      3 C3          1.5378    1.4396   -1.4634 CT        1 <0>       -0.13064
      4 C4          1.5017    2.3122    0.8671 CT        1 <0>       -0.13064
      5 C5         -2.0177    0.0569    0.8238 CT        1 <0>       -0.14279
      6 C6         -0.5607   -1.8790    0.0501 CT        1 <0>       -0.05377
      7 C7          0.6759    1.6035   -0.2092 CT        1 <0>        0.37403
      8 C8         -0.8431   -0.3501   -0.0771 CT        1 <0>        0.37531
      9 O1         -0.4375    2.4506   -0.4735 OH        1 <0>       -0.63530
     10 O2         -1.2020   -0.1231   -1.4418 OH        1 <0>       -0.61635
     11 O3          0.3482    0.3264    0.3476 OS        1 <0>       -0.45245
     12 H1          0.6977   -1.8106    1.8397 HC        1 <0>        0.03912
     13 H2         -0.0093   -3.3977    1.5076 HC        1 <0>        0.03912
     14 H3         -1.0173   -2.1186    2.1731 HC        1 <0>        0.03912
     15 H4          1.5015   -1.8177   -0.6528 HC        1 <0>        0.03912
     16 H5          0.3230   -2.0894   -1.9443 HC        1 <0>        0.03912
     17 H6          0.7443   -3.4008   -0.8285 HC        1 <0>        0.03912
     18 H7          0.9930    0.9364   -2.2672 HC        1 <0>        0.05187
     19 H8          1.8416    2.4138   -1.8622 HC        1 <0>        0.05187
     20 H9          2.4314    0.8416   -1.2553 HC        1 <0>        0.05187
     21 H10         0.9254    2.4532    1.7882 HC        1 <0>        0.05187
     22 H11         2.4193    1.7603    1.0980 HC        1 <0>        0.05187
     23 H12         1.8038    3.3079    0.5205 HC        1 <0>        0.05187
     24 H13        -2.2229    1.1297    0.7406 HC        1 <0>        0.05467
     25 H14        -2.9259   -0.5064    0.5881 HC        1 <0>        0.05467
     26 H15        -1.7988   -0.1282    1.8801 HC        1 <0>        0.05467
     27 H16        -1.4649   -2.4226   -0.2563 HC        1 <0>        0.04848
     28 H17        -0.1028    3.3191   -0.7518 HO        1 <0>        0.41189
     29 H18        -1.9841   -0.6591   -1.6520 HO        1 <0>        0.41640
@<TRIPOS>BOND
     1    1    6 1
     2    2    6 1
     3    3    7 1
     4    4    7 1
     5    5    8 1
     6    6    8 1
     7    7    9 1
     8    7   11 1
     9    8   10 1
    10    8   11 1
    11    1   12 1
    12    1   13 1
    13    1   14 1
    14    2   15 1
    15    2   16 1
    16    2   17 1
    17    3   18 1
    18    3   19 1
    19    3   20 1
    20    4   21 1
    21    4   22 1
    22    4   23 1
    23    5   24 1
    24    5   25 1
    25    5   26 1
    26    6   27 1
    27    9   28 1
    28   10   29 1
@<TRIPOS>SUBSTRUCTURE
     1 <0>         1 GROUP 0 A     ****
