@<TRIPOS>MOLECULE
AlkEthOH_c850
   24    23     1     0     0
SMALL
USER_CHARGES

@<TRIPOS>ATOM
      1 C1         -2.6608   -0.3555   -1.1011 CT        1 <0>       -0.12753
      2 C2          0.9165    1.6321    1.2339 CT        1 <0>       -0.10486
      3 C3          2.4763    0.8755   -2.6116 CT        1 <0>        0.11452
      4 C4          1.5944    0.0360   -0.6016 CT        1 <0>        0.10503
      5 C5         -1.2568   -0.7205   -0.6438 CT        1 <0>        0.34092
      6 C6          0.6071    0.2986    0.5445 CT        1 <0>        0.36221
      7 O1         -1.3710   -1.8672    0.1909 OH        1 <0>       -0.62832
      8 O2          0.7504   -0.7488    1.5056 OH        1 <0>       -0.62525
      9 O3          1.5342    1.0784   -1.5678 OS        1 <0>       -0.41346
     10 O4         -0.7347    0.4126    0.0474 OS        1 <0>       -0.43893
     11 H1         -3.2963   -0.0990   -0.2475 HC        1 <0>        0.05436
     12 H2         -3.1311   -1.2000   -1.6179 HC        1 <0>        0.05436
     13 H3         -2.6394    0.4857   -1.8013 HC        1 <0>        0.05436
     14 H4          0.2071    1.8119    2.0508 HC        1 <0>        0.05548
     15 H5          0.8188    2.4708    0.5363 HC        1 <0>        0.05548
     16 H6          1.9187    1.6431    1.6747 HC        1 <0>        0.05548
     17 H7          2.4026    1.6923   -3.3338 H1        1 <0>        0.03413
     18 H8          2.2760   -0.0795   -3.1039 H1        1 <0>        0.03413
     19 H9          3.4819    0.8592   -2.1847 H1        1 <0>        0.03413
     20 H10         1.3744   -0.9168   -1.0952 H1        1 <0>        0.04699
     21 H11         2.6246    0.0009   -0.2335 H1        1 <0>        0.04699
     22 H12        -0.6590   -0.9686   -1.5258 H2        1 <0>        0.04288
     23 H13        -1.7689   -2.5726   -0.3470 HO        1 <0>        0.40970
     24 H14         0.1243   -0.5861    2.2309 HO        1 <0>        0.43720
@<TRIPOS>BOND
     1    1    5 1
     2    2    6 1
     3    3    9 1
     4    4    6 1
     5    4    9 1
     6    5    7 1
     7    5   10 1
     8    6    8 1
     9    6   10 1
    10    1   11 1
    11    1   12 1
    12    1   13 1
    13    2   14 1
    14    2   15 1
    15    2   16 1
    16    3   17 1
    17    3   18 1
    18    3   19 1
    19    4   20 1
    20    4   21 1
    21    5   22 1
    22    7   23 1
    23    8   24 1
@<TRIPOS>SUBSTRUCTURE
     1 <0>         1 GROUP 0 A     ****
