@<TRIPOS>MOLECULE
AlkEthOH_c697
   27    26     1     0     0
SMALL
USER_CHARGES

@<TRIPOS>ATOM
      1 C1         -3.0114    1.3019   -1.6281 CT        1 <0>       -0.13023
      2 C2          2.5281   -0.7547    1.3853 CT        1 <0>       -0.12712
      3 C3          0.5669   -2.1834    1.9667 CT        1 <0>       -0.12712
      4 C4         -0.8155    1.6021   -0.4282 CT        1 <0>       -0.09854
      5 C5         -1.7025    0.6372   -1.2222 CT        1 <0>        0.14431
      6 C6          0.5041    0.9715    0.0350 CT        1 <0>        0.33934
      7 C7          1.1283   -1.1893    0.9491 CT        1 <0>        0.34994
      8 O1         -1.0097    0.2284   -2.3981 OH        1 <0>       -0.60375
      9 O2          1.2368    1.9944    0.7066 OH        1 <0>       -0.62870
     10 O3          1.1910   -1.8870   -0.2957 OH        1 <0>       -0.62423
     11 O4          0.1924   -0.1069    0.9144 OS        1 <0>       -0.40090
     12 H1         -2.8257    2.2019   -2.2247 HC        1 <0>        0.04137
     13 H2         -3.6066    1.5765   -0.7518 HC        1 <0>        0.04137
     14 H3         -3.6057    0.6274   -2.2542 HC        1 <0>        0.04137
     15 H4          2.9580   -0.0404    0.6744 HC        1 <0>        0.05267
     16 H5          3.2002   -1.6134    1.4824 HC        1 <0>        0.05267
     17 H6          2.5012   -0.2414    2.3521 HC        1 <0>        0.05267
     18 H7         -0.4383   -2.5075    1.6709 HC        1 <0>        0.05267
     19 H8          0.4809   -1.7312    2.9607 HC        1 <0>        0.05267
     20 H9          1.1881   -3.0832    2.0341 HC        1 <0>        0.05267
     21 H10        -0.5809    2.4841   -1.0384 HC        1 <0>        0.06091
     22 H11        -1.3692    1.9642    0.4478 HC        1 <0>        0.06091
     23 H12        -1.9181   -0.2578   -0.6282 H1        1 <0>        0.05505
     24 H13         1.0772    0.6395   -0.8379 H2        1 <0>        0.07472
     25 H14        -1.5916   -0.3958   -2.8591 HO        1 <0>        0.40059
     26 H15         1.3875    2.7139    0.0717 HO        1 <0>        0.40486
     27 H16         1.7542   -2.6703   -0.1801 HO        1 <0>        0.40983
@<TRIPOS>BOND
     1    1    5 1
     2    2    7 1
     3    3    7 1
     4    4    5 1
     5    4    6 1
     6    5    8 1
     7    6    9 1
     8    6   11 1
     9    7   10 1
    10    7   11 1
    11    1   12 1
    12    1   13 1
    13    1   14 1
    14    2   15 1
    15    2   16 1
    16    2   17 1
    17    3   18 1
    18    3   19 1
    19    3   20 1
    20    4   21 1
    21    4   22 1
    22    5   23 1
    23    6   24 1
    24    8   25 1
    25    9   26 1
    26   10   27 1
@<TRIPOS>SUBSTRUCTURE
     1 <0>         1 GROUP 0 A     ****
