@<TRIPOS>MOLECULE
AlkEthOH_c640
   26    25     1     0     0
SMALL
USER_CHARGES

@<TRIPOS>ATOM
      1 C1          1.0332    2.8424    0.3626 CT        1 <0>       -0.13186
      2 C2         -2.1155   -0.8950   -0.8298 CT        1 <0>       -0.12544
      3 C3          0.0886   -1.6375    0.1749 CT        1 <0>       -0.11623
      4 C4         -0.4375    0.8732   -0.1995 CT        1 <0>       -0.06174
      5 C5          1.0243   -1.6785   -1.0282 CT        1 <0>        0.13777
      6 C6          0.6444    1.4190    0.7465 CT        1 <0>        0.14385
      7 C7         -0.9862   -0.5339    0.1457 CT        1 <0>        0.16292
      8 O1          1.9633   -2.7356   -0.8643 OH        1 <0>       -0.60204
      9 O2          0.1579    1.4275    2.0841 OH        1 <0>       -0.57039
     10 O3         -1.5672   -0.5041    1.4564 OH        1 <0>       -0.57101
     11 H1          0.1567    3.4988    0.3875 HC        1 <0>        0.04160
     12 H2          1.4245    2.8799   -0.6600 HC        1 <0>        0.04160
     13 H3          1.7883    3.2461    1.0439 HC        1 <0>        0.04160
     14 H4         -2.8794   -0.1093   -0.8497 HC        1 <0>        0.04168
     15 H5         -2.5969   -1.8428   -0.5710 HC        1 <0>        0.04168
     16 H6         -1.7337   -0.9773   -1.8542 HC        1 <0>        0.04168
     17 H7          0.6817   -1.5585    1.0959 HC        1 <0>        0.06347
     18 H8         -0.3992   -2.6175    0.2778 HC        1 <0>        0.06347
     19 H9         -0.0488    0.8728   -1.2254 HC        1 <0>        0.05476
     20 H10        -1.2820    1.5762   -0.1781 HC        1 <0>        0.05476
     21 H11         1.5834   -0.7459   -1.1439 H1        1 <0>        0.02136
     22 H12         0.4751   -1.8693   -1.9539 H1        1 <0>        0.02136
     23 H13         1.5374    0.7872    0.7131 H1        1 <0>        0.02637
     24 H14         2.5347   -2.7239   -1.6484 HO        1 <0>        0.39922
     25 H15         0.8809    1.7574    2.6408 HO        1 <0>        0.38886
     26 H16        -1.9194   -1.3913    1.6130 HO        1 <0>        0.39070
@<TRIPOS>BOND
     1    1    6 1
     2    2    7 1
     3    3    5 1
     4    3    7 1
     5    4    6 1
     6    4    7 1
     7    5    8 1
     8    6    9 1
     9    7   10 1
    10    1   11 1
    11    1   12 1
    12    1   13 1
    13    2   14 1
    14    2   15 1
    15    2   16 1
    16    3   17 1
    17    3   18 1
    18    4   19 1
    19    4   20 1
    20    5   21 1
    21    5   22 1
    22    6   23 1
    23    8   24 1
    24    9   25 1
    25   10   26 1
@<TRIPOS>SUBSTRUCTURE
     1 <0>         1 GROUP 0 A     ****
