@<TRIPOS>MOLECULE
AlkEthOH_c1203
   29    28     1     0     0
SMALL
USER_CHARGES

@<TRIPOS>ATOM
      1 C1         -3.4083    0.1933   -1.8709 CT        1 <0>       -0.09459
      2 C2          1.7708   -1.2409   -0.9758 CT        1 <0>       -0.13019
      3 C3          1.4759   -2.2917    1.2719 CT        1 <0>       -0.13019
      4 C4         -0.6550    2.2154    0.9435 CT        1 <0>       -0.14719
      5 C5          0.4616   -0.0249    0.8923 CT        1 <0>       -0.08610
      6 C6         -2.1717    0.9884   -1.5098 CT        1 <0>        0.14160
      7 C7          0.8323   -1.3753    0.2235 CT        1 <0>        0.16087
      8 C8         -0.3329    1.0082    0.0506 CT        1 <0>        0.36029
      9 O1         -0.3569   -2.0401   -0.2101 OH        1 <0>       -0.56931
     10 O2          0.5143    1.4341   -1.0180 OH        1 <0>       -0.62507
     11 O3         -1.5270    0.3661   -0.4087 OS        1 <0>       -0.39823
     12 H1         -3.1455   -0.8300   -2.1532 HC        1 <0>        0.04263
     13 H2         -4.1054    0.1593   -1.0272 HC        1 <0>        0.04263
     14 H3         -3.9400    0.6642   -2.7043 HC        1 <0>        0.04263
     15 H4          1.3461   -0.5923   -1.7489 HC        1 <0>        0.04381
     16 H5          2.7501   -0.8516   -0.6799 HC        1 <0>        0.04381
     17 H6          1.9213   -2.2132   -1.4598 HC        1 <0>        0.04381
     18 H7          0.8236   -2.4067    2.1455 HC        1 <0>        0.04381
     19 H8          2.4131   -1.8615    1.6440 HC        1 <0>        0.04381
     20 H9          1.6879   -3.2857    0.8643 HC        1 <0>        0.04381
     21 H10        -1.2180    2.9752    0.3901 HC        1 <0>        0.04836
     22 H11        -1.2828    1.9277    1.7938 HC        1 <0>        0.04836
     23 H12         0.2578    2.6661    1.3472 HC        1 <0>        0.04836
     24 H13         1.3863    0.4530    1.2431 HC        1 <0>        0.05870
     25 H14        -0.1446   -0.2648    1.7776 HC        1 <0>        0.05870
     26 H15        -2.4415    2.0107   -1.2285 H1        1 <0>        0.03213
     27 H16        -1.4760    1.0206   -2.3535 H1        1 <0>        0.03213
     28 H17        -0.0782   -2.9058   -0.5430 HO        1 <0>        0.39073
     29 H18         1.3313    1.7976   -0.6378 HO        1 <0>        0.40989
@<TRIPOS>BOND
     1    1    6 1
     2    2    7 1
     3    3    7 1
     4    4    8 1
     5    5    7 1
     6    5    8 1
     7    6   11 1
     8    7    9 1
     9    8   10 1
    10    8   11 1
    11    1   12 1
    12    1   13 1
    13    1   14 1
    14    2   15 1
    15    2   16 1
    16    2   17 1
    17    3   18 1
    18    3   19 1
    19    3   20 1
    20    4   21 1
    21    4   22 1
    22    4   23 1
    23    5   24 1
    24    5   25 1
    25    6   26 1
    26    6   27 1
    27    9   28 1
    28   10   29 1
@<TRIPOS>SUBSTRUCTURE
     1 <0>         1 GROUP 0 A     ****
