@<TRIPOS>MOLECULE
AlkEthOH_c230
   16    15     1     0     0
SMALL
USER_CHARGES

@<TRIPOS>ATOM
      1 C1         -0.4921    0.1122    0.9716 CT        1 <0>       -0.12146
      2 C2          1.6723    0.5912    2.1500 CT        1 <0>       -0.12146
      3 C3          0.7921   -1.7855    2.0067 CT        1 <0>        0.14328
      4 C4          0.4298   -0.2995    2.1208 CT        1 <0>        0.14089
      5 O1          1.6294   -2.1769    3.0890 OH        1 <0>       -0.59395
      6 O2         -0.2710   -0.0901    3.3496 OH        1 <0>       -0.59446
      7 H1         -1.3862   -0.5210    0.9424 HC        1 <0>        0.04554
      8 H2         -0.8084    1.1564    1.0628 HC        1 <0>        0.04554
      9 H3          0.0077   -0.0148    0.0045 HC        1 <0>        0.04554
     10 H4          2.3454    0.3108    2.9678 HC        1 <0>        0.04554
     11 H5          1.3962    1.6368    2.3298 HC        1 <0>        0.04554
     12 H6          2.2270    0.5381    1.2076 HC        1 <0>        0.04554
     13 H7         -0.1078   -2.4090    2.0456 H1        1 <0>        0.03546
     14 H8          1.3250   -1.9888    1.0718 H1        1 <0>        0.03546
     15 H9          1.8238   -3.1192    2.9637 HO        1 <0>        0.40374
     16 H10        -0.4842    0.8539    3.3830 HO        1 <0>        0.39926
@<TRIPOS>BOND
     1    1    4 1
     2    2    4 1
     3    3    4 1
     4    3    5 1
     5    4    6 1
     6    1    7 1
     7    1    8 1
     8    1    9 1
     9    2   10 1
    10    2   11 1
    11    2   12 1
    12    3   13 1
    13    3   14 1
    14    5   15 1
    15    6   16 1
@<TRIPOS>SUBSTRUCTURE
     1 <0>         1 GROUP 0 A     ****
