@<TRIPOS>MOLECULE
AlkEthOH_c591
   19    18     1     0     0
SMALL
USER_CHARGES

@<TRIPOS>ATOM
      1 C1          1.0765    0.0499    0.1958 CT        1 <0>       -0.10879
      2 C2          2.8427    1.0382    1.6976 CT        1 <0>       -0.10879
      3 C3         -1.1051    3.6486    1.1871 CT        1 <0>        0.13065
      4 C4         -0.5869    2.2451    1.4354 CT        1 <0>        0.12369
      5 C5          1.3532    0.9191    1.4130 CT        1 <0>        0.14030
      6 O1         -0.4595    4.5468    2.0814 OH        1 <0>       -0.59680
      7 O2          0.8123    2.2184    1.1940 OS        1 <0>       -0.42278
      8 H1          1.5701    0.4471   -0.6963 HC        1 <0>        0.04267
      9 H2          1.4331   -0.9713    0.3679 HC        1 <0>        0.04267
     10 H3          0.0011   -0.0220   -0.0013 HC        1 <0>        0.04267
     11 H4          3.3785    1.4589    0.8413 HC        1 <0>        0.04267
     12 H5          3.2667    0.0547    1.9270 HC        1 <0>        0.04267
     13 H6          3.0274    1.6718    2.5721 HC        1 <0>        0.04267
     14 H7         -2.1834    3.7080    1.3638 H1        1 <0>        0.03537
     15 H8         -0.8812    3.9639    0.1638 H1        1 <0>        0.03537
     16 H9         -1.0626    1.5241    0.7633 H1        1 <0>        0.03795
     17 H10        -0.7610    1.9509    2.4745 H1        1 <0>        0.03795
     18 H11         0.8468    0.4961    2.2868 H1        1 <0>        0.03770
     19 H12        -0.8146    5.4304    1.8940 HO        1 <0>        0.40216
@<TRIPOS>BOND
     1    1    5 1
     2    2    5 1
     3    3    4 1
     4    3    6 1
     5    4    7 1
     6    5    7 1
     7    1    8 1
     8    1    9 1
     9    1   10 1
    10    2   11 1
    11    2   12 1
    12    2   13 1
    13    3   14 1
    14    3   15 1
    15    4   16 1
    16    4   17 1
    17    5   18 1
    18    6   19 1
@<TRIPOS>SUBSTRUCTURE
     1 <0>         1 GROUP 0 A     ****
