@<TRIPOS>MOLECULE
AlkEthOH_c480
   28    27     1     0     0
SMALL
USER_CHARGES

@<TRIPOS>ATOM
      1 C1          2.3398   -3.6724    5.4601 CT        1 <0>       -0.09161
      2 C2          3.4591   -5.3475    3.9637 CT        1 <0>       -0.09161
      3 C3         -0.5521    0.0942    1.0158 CT        1 <0>       -0.12329
      4 C4          1.6683    0.5960    2.0745 CT        1 <0>       -0.12329
      5 C5          2.0530   -3.5288    2.9521 CT        1 <0>        0.13220
      6 C6          0.7921   -1.7855    2.0067 CT        1 <0>        0.14135
      7 C7          2.9995   -3.8974    4.0979 CT        1 <0>       -0.06687
      8 C8          0.4298   -0.2995    2.1208 CT        1 <0>        0.15051
      9 O1         -0.2074   -0.0771    3.3815 OH        1 <0>       -0.58498
     10 O2          1.6860   -2.1600    3.0490 OS        1 <0>       -0.40838
     11 H1          1.4504   -4.3025    5.5684 HC        1 <0>        0.03696
     12 H2          2.0316   -2.6286    5.5839 HC        1 <0>        0.03696
     13 H3          3.0238   -3.9234    6.2773 HC        1 <0>        0.03696
     14 H4          2.6057   -6.0322    4.0093 HC        1 <0>        0.03696
     15 H5          4.1447   -5.6146    4.7749 HC        1 <0>        0.03696
     16 H6          3.9769   -5.5149    3.0130 HC        1 <0>        0.03696
     17 H7         -1.4437   -0.5426    1.0409 HC        1 <0>        0.04530
     18 H8         -0.8677    1.1383    1.1102 HC        1 <0>        0.04530
     19 H9         -0.1024   -0.0433    0.0258 HC        1 <0>        0.04530
     20 H10         2.3840    0.3285    2.8598 HC        1 <0>        0.04530
     21 H11         1.3973    1.6428    2.2552 HC        1 <0>        0.04530
     22 H12         2.1737    0.5330    1.1054 HC        1 <0>        0.04530
     23 H13         2.5432   -3.6801    1.9847 H1        1 <0>        0.02467
     24 H14         1.1421   -4.1366    2.9808 H1        1 <0>        0.02467
     25 H15        -0.1019   -2.4117    2.1000 H1        1 <0>        0.03388
     26 H16         1.2768   -1.9987    1.0480 H1        1 <0>        0.03388
     27 H17         3.8794   -3.2433    4.0477 HC        1 <0>        0.05869
     28 H18        -0.4226    0.8666    3.4141 HO        1 <0>        0.39662
@<TRIPOS>BOND
     1    1    7 1
     2    2    7 1
     3    3    8 1
     4    4    8 1
     5    5    7 1
     6    5   10 1
     7    6    8 1
     8    6   10 1
     9    8    9 1
    10    1   11 1
    11    1   12 1
    12    1   13 1
    13    2   14 1
    14    2   15 1
    15    2   16 1
    16    3   17 1
    17    3   18 1
    18    3   19 1
    19    4   20 1
    20    4   21 1
    21    4   22 1
    22    5   23 1
    23    5   24 1
    24    6   25 1
    25    6   26 1
    26    7   27 1
    27    9   28 1
@<TRIPOS>SUBSTRUCTURE
     1 <0>         1 GROUP 0 A     ****
