@<TRIPOS>MOLECULE
AlkEthOH_c308
   28    27     1     0     0
SMALL
USER_CHARGES

@<TRIPOS>ATOM
      1 C1         -1.4330   -0.9539    1.4632 CT        1 <0>       -0.08912
      2 C2         -1.7590    1.1605    0.1780 CT        1 <0>       -0.08912
      3 C3          2.9101    1.8416    0.3241 CT        1 <0>       -0.10692
      4 C4          3.1417   -0.2969    1.6373 CT        1 <0>       -0.10692
      5 C5          0.4836    0.2994   -1.7145 CT        1 <0>       -0.14813
      6 C6         -1.2049   -0.2673    0.1065 CT        1 <0>       -0.07962
      7 C7          2.4533    0.3984    0.4727 CT        1 <0>        0.14839
      8 C8          0.2917   -0.3253   -0.3250 CT        1 <0>        0.35011
      9 O1          0.6417   -1.7139   -0.3895 OH        1 <0>       -0.62772
     10 O2          1.0484    0.3715    0.6765 OS        1 <0>       -0.41151
     11 H1         -0.8738   -0.4553    2.2613 HC        1 <0>        0.04181
     12 H2         -1.0930   -1.9949    1.4298 HC        1 <0>        0.04181
     13 H3         -2.4926   -0.9576    1.7400 HC        1 <0>        0.04181
     14 H4         -1.2075    1.7719    0.8995 HC        1 <0>        0.04181
     15 H5         -2.8112    1.1517    0.4833 HC        1 <0>        0.04181
     16 H6         -1.7136    1.6554   -0.7966 HC        1 <0>        0.04181
     17 H7          2.7159    2.4155    1.2354 HC        1 <0>        0.04195
     18 H8          3.9830    1.8813    0.1073 HC        1 <0>        0.04195
     19 H9          2.4020    2.3319   -0.5137 HC        1 <0>        0.04195
     20 H10         2.9532    0.2259    2.5799 HC        1 <0>        0.04195
     21 H11         4.2235   -0.3388    1.4707 HC        1 <0>        0.04195
     22 H12         2.7986   -1.3326    1.7365 HC        1 <0>        0.04195
     23 H13         1.5342    0.2619   -2.0241 HC        1 <0>        0.04890
     24 H14        -0.0779   -0.2537   -2.4752 HC        1 <0>        0.04890
     25 H15         0.1827    1.3514   -1.7335 HC        1 <0>        0.04890
     26 H16        -1.7973   -0.8266   -0.6306 HC        1 <0>        0.04168
     27 H17         2.6609   -0.1477   -0.4533 H1        1 <0>        0.05857
     28 H18         0.0621   -2.1490   -1.0366 HO        1 <0>        0.41105
@<TRIPOS>BOND
     1    1    6 1
     2    2    6 1
     3    3    7 1
     4    4    7 1
     5    5    8 1
     6    6    8 1
     7    7   10 1
     8    8    9 1
     9    8   10 1
    10    1   11 1
    11    1   12 1
    12    1   13 1
    13    2   14 1
    14    2   15 1
    15    2   16 1
    16    3   17 1
    17    3   18 1
    18    3   19 1
    19    4   20 1
    20    4   21 1
    21    4   22 1
    22    5   23 1
    23    5   24 1
    24    5   25 1
    25    6   26 1
    26    7   27 1
    27    9   28 1
@<TRIPOS>SUBSTRUCTURE
     1 <0>         1 GROUP 0 A     ****
