@<TRIPOS>MOLECULE
AlkEthOH_c29
   14    13     1     0     0
SMALL
USER_CHARGES

@<TRIPOS>ATOM
      1 C1         -0.8936    0.4506    0.4416 CT        1 <0>        0.12823
      2 C2         -2.1461   -0.1936   -0.1209 CT        1 <0>        0.12431
      3 C3         -4.5008   -0.0080   -0.1741 CT        1 <0>        0.32927
      4 O1         -0.8015    1.7855   -0.0410 OH        1 <0>       -0.60156
      5 O2         -4.7646   -1.3110    0.3260 OH        1 <0>       -0.63359
      6 O3         -3.2827    0.5410    0.3172 OS        1 <0>       -0.41688
      7 H1          0.0040   -0.0891    0.1246 H1        1 <0>        0.03946
      8 H2         -0.9377    0.4835    1.5341 H1        1 <0>        0.03946
      9 H3         -2.2509   -1.2251    0.2298 H1        1 <0>        0.04994
     10 H4         -2.1275   -0.1762   -1.2145 H1        1 <0>        0.04994
     11 H5         -4.5224   -0.0116   -1.2701 H2        1 <0>        0.03897
     12 H6         -5.3098    0.6417    0.1719 H2        1 <0>        0.03897
     13 H7          0.0079    2.1639    0.3380 HO        1 <0>        0.40191
     14 H8         -5.6081   -1.6020   -0.0599 HO        1 <0>        0.41157
@<TRIPOS>BOND
     1    1    2 1
     2    1    4 1
     3    2    6 1
     4    3    5 1
     5    3    6 1
     6    1    7 1
     7    1    8 1
     8    2    9 1
     9    2   10 1
    10    3   11 1
    11    3   12 1
    12    4   13 1
    13    5   14 1
@<TRIPOS>SUBSTRUCTURE
     1 <0>         1 GROUP 0 A     ****
