@<TRIPOS>MOLECULE
AlkEthOH_c1189
   25    24     1     0     0
SMALL
USER_CHARGES

@<TRIPOS>ATOM
      1 C1         -1.1520   -4.0360    2.5434 CT        1 <0>       -0.09673
      2 C2          0.9511   -0.3029    0.4536 CT        1 <0>       -0.10344
      3 C3         -0.0965   -0.0035    2.7071 CT        1 <0>       -0.10344
      4 C4          2.0341   -1.3283    2.5217 CT        1 <0>       -0.10953
      5 C5         -0.3277   -2.7985    2.8276 CT        1 <0>        0.12649
      6 C6          3.1477   -0.2918    2.3858 CT        1 <0>        0.13732
      7 C7          0.7167   -0.9506    1.8190 CT        1 <0>        0.15665
      8 O1          4.3165   -0.7579    3.0505 OH        1 <0>       -0.60285
      9 O2         -0.0614   -2.1299    1.6054 OS        1 <0>       -0.42469
     10 H1         -2.1044   -3.7715    2.0756 HC        1 <0>        0.04372
     11 H2         -0.6093   -4.7172    1.8798 HC        1 <0>        0.04372
     12 H3         -1.3535   -4.5862    3.4685 HC        1 <0>        0.04372
     13 H4          1.5313   -0.9566   -0.2063 HC        1 <0>        0.04405
     14 H5         -0.0011   -0.1288   -0.0613 HC        1 <0>        0.04405
     15 H6          1.4719    0.6556    0.5466 HC        1 <0>        0.04405
     16 H7         -0.2827   -0.4378    3.6949 HC        1 <0>        0.04405
     17 H8          0.4244    0.9518    2.8392 HC        1 <0>        0.04405
     18 H9         -1.0619    0.2337    2.2454 HC        1 <0>        0.04405
     19 H10         2.4113   -2.2733    2.1074 HC        1 <0>        0.06353
     20 H11         1.8528   -1.5238    3.5865 HC        1 <0>        0.06353
     21 H12         0.6234   -3.0700    3.2953 H1        1 <0>        0.02689
     22 H13        -0.8716   -2.1185    3.4901 H1        1 <0>        0.02689
     23 H14         3.4068   -0.1238    1.3365 H1        1 <0>        0.02204
     24 H15         2.8675    0.6670    2.8311 H1        1 <0>        0.02204
     25 H16         4.9929   -0.0712    2.9383 HO        1 <0>        0.39984
@<TRIPOS>BOND
     1    1    5 1
     2    2    7 1
     3    3    7 1
     4    4    6 1
     5    4    7 1
     6    5    9 1
     7    6    8 1
     8    7    9 1
     9    1   10 1
    10    1   11 1
    11    1   12 1
    12    2   13 1
    13    2   14 1
    14    2   15 1
    15    3   16 1
    16    3   17 1
    17    3   18 1
    18    4   19 1
    19    4   20 1
    20    5   21 1
    21    5   22 1
    22    6   23 1
    23    6   24 1
    24    8   25 1
@<TRIPOS>SUBSTRUCTURE
     1 <0>         1 GROUP 0 A     ****
