@<TRIPOS>MOLECULE
AlkEthOH_c170
   25    24     1     0     0
SMALL
USER_CHARGES

@<TRIPOS>ATOM
      1 C1          0.9830    0.4824    0.0436 CT        1 <0>       -0.08772
      2 C2          2.4836    2.2598   -0.8693 CT        1 <0>       -0.08772
      3 C3          0.0165    2.6668   -0.6900 CT        1 <0>       -0.08772
      4 C4          0.8906    1.0000   -2.4043 CT        1 <0>       -0.07586
      5 C5          1.0324    1.9635   -3.5790 CT        1 <0>        0.13519
      6 C6          0.8998    2.0746   -5.9353 CT        1 <0>        0.32829
      7 C7          1.0941    1.6140   -0.9966 CT        1 <0>       -0.05241
      8 O1          2.2149    2.5723   -6.1357 OH        1 <0>       -0.63005
      9 O2          0.7873    1.2458   -4.7839 OS        1 <0>       -0.42261
     10 H1          0.0052   -0.0095   -0.0097 HC        1 <0>        0.03484
     11 H2          1.1089    0.8671    1.0619 HC        1 <0>        0.03484
     12 H3          1.7493   -0.2841   -0.1189 HC        1 <0>        0.03484
     13 H4          2.6088    3.0733   -1.5925 HC        1 <0>        0.03484
     14 H5          3.2772    1.5262   -1.0538 HC        1 <0>        0.03484
     15 H6          2.6502    2.6700    0.1321 HC        1 <0>        0.03484
     16 H7          0.0480    3.4991   -1.4009 HC        1 <0>        0.03484
     17 H8          0.1549    3.0917    0.3109 HC        1 <0>        0.03484
     18 H9         -0.9867    2.2281   -0.7285 HC        1 <0>        0.03484
     19 H10        -0.1021    0.5320   -2.4613 HC        1 <0>        0.05323
     20 H11         1.5992    0.1728   -2.5504 HC        1 <0>        0.05323
     21 H12         0.3064    2.7786   -3.5191 H1        1 <0>        0.03887
     22 H13         2.0410    2.3813   -3.6355 H1        1 <0>        0.03887
     23 H14         0.1825    2.9029   -5.9019 H2        1 <0>        0.03589
     24 H15         0.6521    1.4556   -6.8024 H2        1 <0>        0.03589
     25 H16         2.1955    3.1223   -6.9370 HO        1 <0>        0.41107
@<TRIPOS>BOND
     1    1    7 1
     2    2    7 1
     3    3    7 1
     4    4    5 1
     5    4    7 1
     6    5    9 1
     7    6    8 1
     8    6    9 1
     9    1   10 1
    10    1   11 1
    11    1   12 1
    12    2   13 1
    13    2   14 1
    14    2   15 1
    15    3   16 1
    16    3   17 1
    17    3   18 1
    18    4   19 1
    19    4   20 1
    20    5   21 1
    21    5   22 1
    22    6   23 1
    23    6   24 1
    24    8   25 1
@<TRIPOS>SUBSTRUCTURE
     1 <0>         1 GROUP 0 A     ****
