@<TRIPOS>MOLECULE
AlkEthOH_c421
   27    26     1     0     0
SMALL
USER_CHARGES

@<TRIPOS>ATOM
      1 C1         -0.2021    2.4249   -3.4693 CT        1 <0>       -0.09070
      2 C2          1.0952    0.3422   -2.9808 CT        1 <0>       -0.09070
      3 C3         -2.6615    0.4988   -5.3375 CT        1 <0>       -0.09215
      4 C4         -4.0369    0.1249   -3.2420 CT        1 <0>       -0.08244
      5 C5         -1.4505    0.2686   -3.1468 CT        1 <0>       -0.06770
      6 C6         -4.4324    0.6267   -1.8567 CT        1 <0>        0.13111
      7 C7         -0.1478    0.9072   -3.6690 CT        1 <0>       -0.06885
      8 C8         -2.7529    0.7425   -3.8263 CT        1 <0>       -0.06444
      9 O1         -5.6254   -0.0265   -1.4372 OH        1 <0>       -0.60305
     10 H1         -0.2913    2.6839   -2.4088 HC        1 <0>        0.03314
     11 H2          0.7031    2.9017   -3.8598 HC        1 <0>        0.03314
     12 H3         -1.0592    2.8564   -3.9971 HC        1 <0>        0.03314
     13 H4          1.0470    0.5046   -1.8986 HC        1 <0>        0.03314
     14 H5          1.1909   -0.7347   -3.1561 HC        1 <0>        0.03314
     15 H6          2.0067    0.8289   -3.3400 HC        1 <0>        0.03314
     16 H7         -2.5790   -0.5667   -5.5737 HC        1 <0>        0.03508
     17 H8         -1.7814    1.0001   -5.7550 HC        1 <0>        0.03508
     18 H9         -3.5432    0.8961   -5.8511 HC        1 <0>        0.03508
     19 H10        -4.8755    0.2863   -3.9305 HC        1 <0>        0.05584
     20 H11        -3.9235   -0.9668   -3.2017 HC        1 <0>        0.05584
     21 H12        -1.5231    0.4460   -2.0659 HC        1 <0>        0.04011
     22 H13        -1.3772   -0.8216   -3.2636 HC        1 <0>        0.04011
     23 H14        -3.6567    0.4245   -1.1127 H1        1 <0>        0.02017
     24 H15        -4.6335    1.7012   -1.8630 H1        1 <0>        0.02017
     25 H16        -0.0593    0.7244   -4.7461 HC        1 <0>        0.04734
     26 H17        -2.8315    1.8292   -3.6942 HC        1 <0>        0.04711
     27 H18        -5.8381    0.3215   -0.5568 HO        1 <0>        0.39815
@<TRIPOS>BOND
     1    1    7 1
     2    2    7 1
     3    3    8 1
     4    4    6 1
     5    4    8 1
     6    5    7 1
     7    5    8 1
     8    6    9 1
     9    1   10 1
    10    1   11 1
    11    1   12 1
    12    2   13 1
    13    2   14 1
    14    2   15 1
    15    3   16 1
    16    3   17 1
    17    3   18 1
    18    4   19 1
    19    4   20 1
    20    5   21 1
    21    5   22 1
    22    6   23 1
    23    6   24 1
    24    7   25 1
    25    8   26 1
    26    9   27 1
@<TRIPOS>SUBSTRUCTURE
     1 <0>         1 GROUP 0 A     ****
