@<TRIPOS>MOLECULE
AlkEthOH_c1084
   26    25     1     0     0
SMALL
USER_CHARGES

@<TRIPOS>ATOM
      1 C1         -0.8987    0.6740    0.3448 CT        1 <0>       -0.09213
      2 C2         -1.1052   -3.8316    6.3841 CT        1 <0>       -0.09213
      3 C3         -2.1279    0.1390    4.6461 CT        1 <0>       -0.08996
      4 C4         -0.8825    0.7104    1.8659 CT        1 <0>       -0.07978
      5 C5         -0.9860   -2.3686    5.9832 CT        1 <0>       -0.07978
      6 C6         -1.1188   -0.6811    2.4589 CT        1 <0>       -0.07593
      7 C7         -1.1248   -2.1931    4.4686 CT        1 <0>       -0.07593
      8 C8         -1.0384   -0.7232    4.0011 CT        1 <0>       -0.06233
      9 H1         -0.1342   -0.0162   -0.0257 HC        1 <0>        0.03243
     10 H2         -1.8704    0.3365   -0.0298 HC        1 <0>        0.03243
     11 H3         -0.6939    1.6649   -0.0732 HC        1 <0>        0.03243
     12 H4         -2.0660   -4.2483    6.0655 HC        1 <0>        0.03243
     13 H5         -1.0343   -3.9333    7.4717 HC        1 <0>        0.03243
     14 H6         -0.3050   -4.4284    5.9351 HC        1 <0>        0.03243
     15 H7         -3.1269   -0.2181    4.3743 HC        1 <0>        0.03361
     16 H8         -2.0455    1.1852    4.3377 HC        1 <0>        0.03361
     17 H9         -2.0499    0.1328    5.7372 HC        1 <0>        0.03361
     18 H10        -1.6561    1.4075    2.2033 HC        1 <0>        0.03856
     19 H11         0.0834    1.1014    2.2050 HC        1 <0>        0.03856
     20 H12        -0.0154   -1.9833    6.3162 HC        1 <0>        0.03856
     21 H13        -1.7621   -1.8019    6.5078 HC        1 <0>        0.03856
     22 H14        -2.0957   -1.0572    2.1287 HC        1 <0>        0.03814
     23 H15        -0.3647   -1.3646    2.0473 HC        1 <0>        0.03814
     24 H16        -0.3262   -2.7663    3.9799 HC        1 <0>        0.03814
     25 H17        -2.0741   -2.6323    4.1362 HC        1 <0>        0.03814
     26 H18        -0.0616   -0.3243    4.3044 HC        1 <0>        0.04576
@<TRIPOS>BOND
     1    1    4 1
     2    2    5 1
     3    3    8 1
     4    4    6 1
     5    5    7 1
     6    6    8 1
     7    7    8 1
     8    1    9 1
     9    1   10 1
    10    1   11 1
    11    2   12 1
    12    2   13 1
    13    2   14 1
    14    3   15 1
    15    3   16 1
    16    3   17 1
    17    4   18 1
    18    4   19 1
    19    5   20 1
    20    5   21 1
    21    6   22 1
    22    6   23 1
    23    7   24 1
    24    7   25 1
    25    8   26 1
@<TRIPOS>SUBSTRUCTURE
     1 <0>         1 GROUP 0 A     ****
