@<TRIPOS>MOLECULE
AlkEthOH_c1259
   24    23     1     0     0
SMALL
USER_CHARGES

@<TRIPOS>ATOM
      1 C1         -2.4030   -2.8200   -1.3411 CT        1 <0>       -0.09695
      2 C2          1.4374   -0.3900   -0.9321 CT        1 <0>       -0.13212
      3 C3          1.9169    0.1840    1.4487 CT        1 <0>       -0.13212
      4 C4         -2.1077   -1.6711   -0.4007 CT        1 <0>        0.13975
      5 C5         -1.3133    0.5745   -0.3466 CT        1 <0>        0.52960
      6 C6          1.0495    0.5206    0.2335 CT        1 <0>        0.35866
      7 O1         -2.4861    1.1171    0.2659 OH        1 <0>       -0.61963
      8 O2          1.3092    1.8712   -0.1524 OH        1 <0>       -0.63451
      9 O3         -1.6225   -0.5683   -1.1549 OS        1 <0>       -0.44596
     10 O4         -0.3100    0.3276    0.6425 OS        1 <0>       -0.47203
     11 H1         -3.1629   -2.5380   -2.0752 HC        1 <0>        0.04262
     12 H2         -1.4958   -3.1275   -1.8717 HC        1 <0>        0.04262
     13 H3         -2.7572   -3.6936   -0.7838 HC        1 <0>        0.04262
     14 H4          0.8323   -0.1727   -1.8194 HC        1 <0>        0.05553
     15 H5          2.4967   -0.2838   -1.1876 HC        1 <0>        0.05553
     16 H6          1.2558   -1.4428   -0.6903 HC        1 <0>        0.05553
     17 H7          1.6651    0.8193    2.3048 HC        1 <0>        0.05553
     18 H8          2.9764    0.3545    1.2238 HC        1 <0>        0.05553
     19 H9          1.8124   -0.8674    1.7370 HC        1 <0>        0.05553
     20 H10        -1.3470   -1.9598    0.3308 H1        1 <0>        0.04279
     21 H11        -3.0152   -1.3646    0.1280 H1        1 <0>        0.04279
     22 H12        -0.9546    1.3432   -1.0404 H3        1 <0>        0.10653
     23 H13        -2.2128    1.8841    0.7970 HO        1 <0>        0.43665
     24 H14         2.2562    1.9556   -0.3533 HO        1 <0>        0.41551
@<TRIPOS>BOND
     1    1    4 1
     2    2    6 1
     3    3    6 1
     4    4    9 1
     5    5    7 1
     6    5    9 1
     7    5   10 1
     8    6    8 1
     9    6   10 1
    10    1   11 1
    11    1   12 1
    12    1   13 1
    13    2   14 1
    14    2   15 1
    15    2   16 1
    16    3   17 1
    17    3   18 1
    18    3   19 1
    19    4   20 1
    20    4   21 1
    21    5   22 1
    22    7   23 1
    23    8   24 1
@<TRIPOS>SUBSTRUCTURE
     1 <0>         1 GROUP 0 A     ****
