@<TRIPOS>MOLECULE
AlkEthOH_c79
   20    19     1     0     0
SMALL
USER_CHARGES

@<TRIPOS>ATOM
      1 C1         -0.8219   -0.7579    1.8572 CT        1 <0>       -0.12400
      2 C2          1.7406   -0.2094    0.1990 CT        1 <0>       -0.11849
      3 C3          0.3076    0.7495   -1.6045 CT        1 <0>        0.09908
      4 C4         -0.8073   -0.4632    0.3584 CT        1 <0>        0.14784
      5 C5          0.3765    0.4233   -0.1009 CT        1 <0>        0.16078
      6 O1         -0.9439    1.3462   -1.9267 OH        1 <0>       -0.59548
      7 O2         -0.7841   -1.6999   -0.3508 OH        1 <0>       -0.61331
      8 O3          0.3265    1.6616    0.6168 OH        1 <0>       -0.59099
      9 H1          0.0950   -1.2641    2.1759 HC        1 <0>        0.04690
     10 H2         -1.6439   -1.4423    2.0963 HC        1 <0>        0.04690
     11 H3         -0.9541    0.1521    2.4492 HC        1 <0>        0.04690
     12 H4          1.8265   -0.4560    1.2640 HC        1 <0>        0.04772
     13 H5          2.5672    0.4580   -0.0646 HC        1 <0>        0.04772
     14 H6          1.8688   -1.1570   -0.3351 HC        1 <0>        0.04772
     15 H7          0.4238   -0.1528   -2.2141 H1        1 <0>        0.03786
     16 H8          1.0895    1.4661   -1.8795 H1        1 <0>        0.03786
     17 H9         -1.7515    0.0404    0.1179 H1        1 <0>        0.06245
     18 H10        -0.9282    1.5276   -2.8798 HO        1 <0>        0.40208
     19 H11        -1.5867   -2.1797   -0.0945 HO        1 <0>        0.40414
     20 H12         1.0604    2.1965    0.2823 HO        1 <0>        0.40632
@<TRIPOS>BOND
     1    1    4 1
     2    2    5 1
     3    3    5 1
     4    3    6 1
     5    4    5 1
     6    4    7 1
     7    5    8 1
     8    1    9 1
     9    1   10 1
    10    1   11 1
    11    2   12 1
    12    2   13 1
    13    2   14 1
    14    3   15 1
    15    3   16 1
    16    4   17 1
    17    6   18 1
    18    7   19 1
    19    8   20 1
@<TRIPOS>SUBSTRUCTURE
     1 <0>         1 GROUP 0 A     ****
