@<TRIPOS>MOLECULE
AlkEthOH_c1028
   26    25     1     0     0
SMALL
USER_CHARGES

@<TRIPOS>ATOM
      1 C1          0.5556    0.9635    0.1101 CT        1 <0>       -0.09211
      2 C2          3.2461    1.3813    4.2481 CT        1 <0>       -0.09141
      3 C3          2.5598    4.2460    3.3313 CT        1 <0>       -0.08792
      4 C4          0.1494    3.6865    3.6102 CT        1 <0>       -0.08792
      5 C5          0.5236    1.3955    1.5695 CT        1 <0>       -0.08050
      6 C6          1.8738    2.0339    4.3656 CT        1 <0>       -0.07002
      7 C7          1.5389    2.5118    1.8387 CT        1 <0>       -0.06768
      8 C8          1.5353    3.0921    3.2807 CT        1 <0>       -0.04972
      9 H1          0.3463    1.8086   -0.5537 HC        1 <0>        0.03211
     10 H2          1.5433    0.5673   -0.1459 HC        1 <0>        0.03211
     11 H3         -0.1849    0.1811   -0.0842 HC        1 <0>        0.03211
     12 H4          3.3814    0.8933    3.2790 HC        1 <0>        0.03271
     13 H5          3.3566    0.6124    5.0203 HC        1 <0>        0.03271
     14 H6          4.0524    2.1060    4.3899 HC        1 <0>        0.03271
     15 H7          3.5709    3.8894    3.1051 HC        1 <0>        0.03356
     16 H8          2.3154    5.0377    2.6156 HC        1 <0>        0.03356
     17 H9          2.5861    4.7052    4.3262 HC        1 <0>        0.03356
     18 H10        -0.6281    2.9147    3.5910 HC        1 <0>        0.03356
     19 H11         0.1331    4.1553    4.5994 HC        1 <0>        0.03356
     20 H12        -0.1311    4.4569    2.8824 HC        1 <0>        0.03356
     21 H13         0.7373    0.5224    2.1942 HC        1 <0>        0.03958
     22 H14        -0.4898    1.7323    1.8104 HC        1 <0>        0.03958
     23 H15         1.8064    2.5020    5.3568 HC        1 <0>        0.03745
     24 H16         1.1151    1.2415    4.3615 HC        1 <0>        0.03745
     25 H17         2.5430    2.1395    1.5976 HC        1 <0>        0.03870
     26 H18         1.3498    3.3291    1.1289 HC        1 <0>        0.03870
@<TRIPOS>BOND
     1    1    5 1
     2    2    6 1
     3    3    8 1
     4    4    8 1
     5    5    7 1
     6    6    8 1
     7    7    8 1
     8    1    9 1
     9    1   10 1
    10    1   11 1
    11    2   12 1
    12    2   13 1
    13    2   14 1
    14    3   15 1
    15    3   16 1
    16    3   17 1
    17    4   18 1
    18    4   19 1
    19    4   20 1
    20    5   21 1
    21    5   22 1
    22    6   23 1
    23    6   24 1
    24    7   25 1
    25    7   26 1
@<TRIPOS>SUBSTRUCTURE
     1 <0>         1 GROUP 0 A     ****
