@<TRIPOS>MOLECULE
AlkEthOH_c313
   29    28     1     0     0
SMALL
USER_CHARGES

@<TRIPOS>ATOM
      1 C1          0.4292    0.4414    2.6970 CT        1 <0>       -0.09157
      2 C2         -0.6767   -1.5238    1.6366 CT        1 <0>       -0.09157
      3 C3         -1.5655    1.0320    0.2954 CT        1 <0>       -0.09034
      4 C4          1.8385   -0.2135   -1.2733 CT        1 <0>       -0.08753
      5 C5          0.0285    1.1373   -2.3018 CT        1 <0>       -0.08753
      6 C6         -0.4178   -1.2228   -1.6347 CT        1 <0>       -0.08753
      7 C7          0.2935   -0.3605    1.3928 CT        1 <0>       -0.06262
      8 C8         -0.0933    0.5892    0.2072 CT        1 <0>       -0.04607
      9 C9          0.3174    0.0642   -1.2267 CT        1 <0>       -0.04772
     10 H1         -0.5225    0.9151    2.9616 HC        1 <0>        0.03297
     11 H2          1.1842    1.2292    2.6113 HC        1 <0>        0.03297
     12 H3          0.7121   -0.2133    3.5280 HC        1 <0>        0.03297
     13 H4         -1.6841   -1.1398    1.8336 HC        1 <0>        0.03297
     14 H5         -0.3880   -2.1307    2.4968 HC        1 <0>        0.03297
     15 H6         -0.7492   -2.1836    0.7659 HC        1 <0>        0.03297
     16 H7         -2.2436    0.1823    0.1693 HC        1 <0>        0.03398
     17 H8         -1.8132    1.7396   -0.5024 HC        1 <0>        0.03398
     18 H9         -1.7946    1.5069    1.2537 HC        1 <0>        0.03398
     19 H10         2.1472   -0.9665   -0.5426 HC        1 <0>        0.03379
     20 H11         2.1405   -0.5891   -2.2583 HC        1 <0>        0.03379
     21 H12         2.4124    0.6998   -1.0799 HC        1 <0>        0.03379
     22 H13        -1.0371    1.3903   -2.3312 HC        1 <0>        0.03379
     23 H14         0.3303    0.8041   -3.3004 HC        1 <0>        0.03379
     24 H15         0.5811    2.0623   -2.0982 HC        1 <0>        0.03379
     25 H16        -1.5039   -1.0896   -1.6212 HC        1 <0>        0.03379
     26 H17        -0.1928   -2.0397   -0.9385 HC        1 <0>        0.03379
     27 H18        -0.1221   -1.5586   -2.6336 HC        1 <0>        0.03379
     28 H19         1.2786   -0.7969    1.2023 HC        1 <0>        0.04749
     29 H20         0.4902    1.5121    0.3461 HC        1 <0>        0.04112
@<TRIPOS>BOND
     1    1    7 1
     2    2    7 1
     3    3    8 1
     4    4    9 1
     5    5    9 1
     6    6    9 1
     7    7    8 1
     8    8    9 1
     9    1   10 1
    10    1   11 1
    11    1   12 1
    12    2   13 1
    13    2   14 1
    14    2   15 1
    15    3   16 1
    16    3   17 1
    17    3   18 1
    18    4   19 1
    19    4   20 1
    20    4   21 1
    21    5   22 1
    22    5   23 1
    23    5   24 1
    24    6   25 1
    25    6   26 1
    26    6   27 1
    27    7   28 1
    28    8   29 1
@<TRIPOS>SUBSTRUCTURE
     1 <0>         1 GROUP 0 A     ****
