@<TRIPOS>MOLECULE
AlkEthOH_c217
   25    24     1     0     0
SMALL
USER_CHARGES

@<TRIPOS>ATOM
      1 C1         -0.0356    1.2234   -1.6658 CT        1 <0>       -0.08915
      2 C2         -0.2715    1.5964    0.7930 CT        1 <0>       -0.08915
      3 C3         -2.7713   -1.9494   -1.3845 CT        1 <0>        0.11522
      4 C4          1.0314   -0.4003   -0.0938 CT        1 <0>       -0.07431
      5 C5          1.0250   -1.2390    1.1810 CT        1 <0>        0.13378
      6 C6         -1.5254   -0.2767   -0.3017 CT        1 <0>        0.13176
      7 C7         -0.2019    0.5180   -0.3028 CT        1 <0>       -0.04756
      8 O1          2.2025   -2.0386    1.2013 OH        1 <0>       -0.60202
      9 O2         -1.5362   -1.2481   -1.3397 OS        1 <0>       -0.41645
     10 H1          0.0193    0.4951   -2.4830 HC        1 <0>        0.03822
     11 H2          0.8827    1.8211   -1.6928 HC        1 <0>        0.03822
     12 H3         -0.8755    1.8946   -1.8766 HC        1 <0>        0.03822
     13 H4         -0.3900    1.1560    1.7884 HC        1 <0>        0.03822
     14 H5          0.6361    2.2103    0.8023 HC        1 <0>        0.03822
     15 H6         -1.1237    2.2667    0.6317 HC        1 <0>        0.03822
     16 H7         -2.7441   -2.6856   -2.1915 H1        1 <0>        0.03243
     17 H8         -3.5874   -1.2415   -1.5500 H1        1 <0>        0.03243
     18 H9         -2.9238   -2.4620   -0.4318 H1        1 <0>        0.03243
     19 H10         1.9465    0.2085   -0.1003 HC        1 <0>        0.06237
     20 H11         1.1442   -1.0778   -0.9513 HC        1 <0>        0.06237
     21 H12         0.1623   -1.9099    1.2149 H1        1 <0>        0.02026
     22 H13         1.0289   -0.6101    2.0752 H1        1 <0>        0.02026
     23 H14        -1.6791   -0.7926    0.6519 H1        1 <0>        0.02478
     24 H15        -2.3784    0.3940   -0.4566 H1        1 <0>        0.02478
     25 H16         2.1711   -2.5588    2.0197 HO        1 <0>        0.39645
@<TRIPOS>BOND
     1    1    7 1
     2    2    7 1
     3    3    9 1
     4    4    5 1
     5    4    7 1
     6    5    8 1
     7    6    7 1
     8    6    9 1
     9    1   10 1
    10    1   11 1
    11    1   12 1
    12    2   13 1
    13    2   14 1
    14    2   15 1
    15    3   16 1
    16    3   17 1
    17    3   18 1
    18    4   19 1
    19    4   20 1
    20    5   21 1
    21    5   22 1
    22    6   23 1
    23    6   24 1
    24    8   25 1
@<TRIPOS>SUBSTRUCTURE
     1 <0>         1 GROUP 0 A     ****
