@<TRIPOS>MOLECULE
AlkEthOH_c886
   28    27     1     0     0
SMALL
USER_CHARGES

@<TRIPOS>ATOM
      1 C1          1.0199    1.2134   -7.1499 CT        1 <0>       -0.12441
      2 C2          1.0538    0.4723    0.0377 CT        1 <0>       -0.08763
      3 C3          2.4557    2.3203   -0.8917 CT        1 <0>       -0.08763
      4 C4         -0.0231    2.6159   -0.6621 CT        1 <0>       -0.08763
      5 C5          0.8906    1.0000   -2.4043 CT        1 <0>       -0.07718
      6 C6          0.9664    1.9760   -3.5749 CT        1 <0>        0.13833
      7 C7          0.7823    2.0948   -5.9331 CT        1 <0>        0.32848
      8 C8          1.0941    1.6140   -0.9966 CT        1 <0>       -0.05367
      9 O1         -0.4140    2.8475   -6.1102 OH        1 <0>       -0.62379
     10 O2          0.7299    1.2553   -4.7797 OS        1 <0>       -0.45685
     11 H1          0.2033    0.4955   -7.2771 HC        1 <0>        0.05392
     12 H2          1.0667    1.8174   -8.0631 HC        1 <0>        0.05392
     13 H3          1.9677    0.6732   -7.0635 HC        1 <0>        0.05392
     14 H4          0.0980   -0.0623   -0.0000 HC        1 <0>        0.03503
     15 H5          1.1824    0.8561    1.0560 HC        1 <0>        0.03503
     16 H6          1.8502   -0.2582   -0.1447 HC        1 <0>        0.03503
     17 H7          2.5304    3.1430   -1.6116 HC        1 <0>        0.03503
     18 H8          3.2774    1.6240   -1.0965 HC        1 <0>        0.03503
     19 H9          2.6235    2.7316    0.1092 HC        1 <0>        0.03503
     20 H10        -0.0425    3.4529   -1.3676 HC        1 <0>        0.03503
     21 H11         0.1158    3.0405    0.3389 HC        1 <0>        0.03503
     22 H12        -1.0063    2.1330   -0.6842 HC        1 <0>        0.03503
     23 H13        -0.0813    0.4885   -2.4453 HC        1 <0>        0.05185
     24 H14         1.6323    0.2061   -2.5697 HC        1 <0>        0.05185
     25 H15         0.2061    2.7574   -3.4954 H1        1 <0>        0.03586
     26 H16         1.9541    2.4386   -3.6479 H1        1 <0>        0.03586
     27 H17         1.6160    2.7996   -5.8357 H2        1 <0>        0.07020
     28 H18        -0.3121    3.3988   -6.9041 HO        1 <0>        0.40933
@<TRIPOS>BOND
     1    1    7 1
     2    2    8 1
     3    3    8 1
     4    4    8 1
     5    5    6 1
     6    5    8 1
     7    6   10 1
     8    7    9 1
     9    7   10 1
    10    1   11 1
    11    1   12 1
    12    1   13 1
    13    2   14 1
    14    2   15 1
    15    2   16 1
    16    3   17 1
    17    3   18 1
    18    3   19 1
    19    4   20 1
    20    4   21 1
    21    4   22 1
    22    5   23 1
    23    5   24 1
    24    6   25 1
    25    6   26 1
    26    7   27 1
    27    9   28 1
@<TRIPOS>SUBSTRUCTURE
     1 <0>         1 GROUP 0 A     ****
