@<TRIPOS>MOLECULE
AlkEthOH_c337
   28    27     1     0     0
SMALL
USER_CHARGES

@<TRIPOS>ATOM
      1 C1          0.5345    2.1192   -1.7018 CT        1 <0>       -0.08884
      2 C2          1.8598    2.1611    0.4300 CT        1 <0>       -0.08884
      3 C3          0.1277   -3.0209    0.0114 CT        1 <0>       -0.12524
      4 C4         -2.0182   -1.7365   -0.0353 CT        1 <0>       -0.12524
      5 C5          0.2258   -0.5040   -0.0296 CT        1 <0>       -0.05833
      6 C6          0.4551    2.0811   -0.1750 CT        1 <0>       -0.10086
      7 C7         -0.3644    0.8717    0.3387 CT        1 <0>        0.15111
      8 C8         -0.5736   -1.7353    0.4668 CT        1 <0>        0.15572
      9 O1         -0.4740    0.9627    1.7596 OH        1 <0>       -0.57243
     10 O2         -0.6169   -1.7524    1.8941 OH        1 <0>       -0.57141
     11 H1          1.0542    1.2321   -2.0801 HC        1 <0>        0.03708
     12 H2         -0.4580    2.1398   -2.1626 HC        1 <0>        0.03708
     13 H3          1.0897    2.9993   -2.0421 HC        1 <0>        0.03708
     14 H4          2.4608    1.2882    0.1562 HC        1 <0>        0.03708
     15 H5          2.3914    3.0603    0.1033 HC        1 <0>        0.03708
     16 H6          1.8029    2.1922    1.5237 HC        1 <0>        0.03708
     17 H7          1.1673   -3.0561    0.3531 HC        1 <0>        0.04110
     18 H8          0.1176   -3.1058   -1.0813 HC        1 <0>        0.04110
     19 H9         -0.3927   -3.9066    0.3935 HC        1 <0>        0.04110
     20 H10        -2.5511   -0.8307    0.2721 HC        1 <0>        0.04110
     21 H11        -2.0660   -1.8224   -1.1256 HC        1 <0>        0.04110
     22 H12        -2.5793   -2.5720    0.4000 HC        1 <0>        0.04110
     23 H13         1.2300   -0.5708    0.4083 HC        1 <0>        0.05814
     24 H14         0.3345   -0.5765   -1.1176 HC        1 <0>        0.05814
     25 H15        -0.0726    2.9890    0.1484 HC        1 <0>        0.03810
     26 H16        -1.3786    0.9538   -0.0671 H1        1 <0>        0.02347
     27 H17        -0.8467    1.8367    1.9496 HO        1 <0>        0.38814
     28 H18        -1.1169   -2.5442    2.1429 HO        1 <0>        0.38929
@<TRIPOS>BOND
     1    1    6 1
     2    2    6 1
     3    3    8 1
     4    4    8 1
     5    5    7 1
     6    5    8 1
     7    6    7 1
     8    7    9 1
     9    8   10 1
    10    1   11 1
    11    1   12 1
    12    1   13 1
    13    2   14 1
    14    2   15 1
    15    2   16 1
    16    3   17 1
    17    3   18 1
    18    3   19 1
    19    4   20 1
    20    4   21 1
    21    4   22 1
    22    5   23 1
    23    5   24 1
    24    6   25 1
    25    7   26 1
    26    9   27 1
    27   10   28 1
@<TRIPOS>SUBSTRUCTURE
     1 <0>         1 GROUP 0 A     ****
