@<TRIPOS>MOLECULE
AlkEthOH_c596
   26    25     1     0     0
SMALL
USER_CHARGES

@<TRIPOS>ATOM
      1 C1          0.3689   -0.2698    3.3447 CT        1 <0>       -0.12819
      2 C2         -0.5605   -0.3522   -3.0202 CT        1 <0>       -0.12108
      3 C3         -0.3865    1.7642   -1.6746 CT        1 <0>       -0.12108
      4 C4          0.1401    0.0290    0.8491 CT        1 <0>       -0.10260
      5 C5         -0.2524   -0.8211    2.0675 CT        1 <0>        0.13913
      6 C6         -0.4382   -0.5089   -0.4718 CT        1 <0>        0.16087
      7 C7         -0.0135    0.2791   -1.7363 CT        1 <0>        0.11472
      8 O1         -1.6705   -0.8108    2.2063 OH        1 <0>       -0.60453
      9 O2         -0.0293   -1.8743   -0.6080 OH        1 <0>       -0.59865
     10 O3          1.4191    0.1975   -1.8019 OH        1 <0>       -0.61362
     11 H1          0.0608    0.7694    3.5026 HC        1 <0>        0.04172
     12 H2          1.4625   -0.2664    3.2792 HC        1 <0>        0.04172
     13 H3          0.0701   -0.8568    4.2183 HC        1 <0>        0.04172
     14 H4         -0.2990   -1.4155   -3.0744 HC        1 <0>        0.04608
     15 H5         -0.1710    0.1349   -3.9190 HC        1 <0>        0.04608
     16 H6         -1.6550   -0.3035   -3.0411 HC        1 <0>        0.04608
     17 H7          0.0020    2.2230   -0.7576 HC        1 <0>        0.04608
     18 H8         -1.4729    1.9013   -1.6439 HC        1 <0>        0.04608
     19 H9          0.0132    2.3229   -2.5259 HC        1 <0>        0.04608
     20 H10        -0.2162    1.0527    1.0085 HC        1 <0>        0.06094
     21 H11         1.2344    0.0546    0.7901 HC        1 <0>        0.06094
     22 H12         0.0672   -1.8594    1.9278 H1        1 <0>        0.04640
     23 H13        -1.5337   -0.5212   -0.4139 H1        1 <0>        0.09240
     24 H14        -1.8778   -1.3731    2.9688 HO        1 <0>        0.39839
     25 H15         0.9385   -1.8664   -0.6163 HO        1 <0>        0.40971
     26 H16         1.6768    0.6918   -2.5916 HO        1 <0>        0.40461
@<TRIPOS>BOND
     1    1    5 1
     2    2    7 1
     3    3    7 1
     4    4    5 1
     5    4    6 1
     6    5    8 1
     7    6    7 1
     8    6    9 1
     9    7   10 1
    10    1   11 1
    11    1   12 1
    12    1   13 1
    13    2   14 1
    14    2   15 1
    15    2   16 1
    16    3   17 1
    17    3   18 1
    18    3   19 1
    19    4   20 1
    20    4   21 1
    21    5   22 1
    22    6   23 1
    23    8   24 1
    24    9   25 1
    25   10   26 1
@<TRIPOS>SUBSTRUCTURE
     1 <0>         1 GROUP 0 A     ****
