@<TRIPOS>MOLECULE
AlkEthOH_c1206
   26    25     1     0     0
SMALL
USER_CHARGES

@<TRIPOS>ATOM
      1 C1          2.7153    2.5268   -1.1002 CT        1 <0>       -0.09711
      2 C2          0.3227   -2.6761    1.5492 CT        1 <0>       -0.12664
      3 C3         -1.5188    1.6972   -0.0951 CT        1 <0>       -0.12846
      4 C4         -0.5131   -0.4640    0.6697 CT        1 <0>       -0.10075
      5 C5          1.3266    1.9943   -1.3820 CT        1 <0>        0.14323
      6 C6          0.5128   -1.5972    0.4891 CT        1 <0>        0.14124
      7 C7         -0.4228    0.6641   -0.3872 CT        1 <0>        0.35992
      8 O1          0.3523   -2.1924   -0.7943 OH        1 <0>       -0.61923
      9 O2         -0.6497    0.0801   -1.6704 OH        1 <0>       -0.63075
     10 O3          0.8865    1.2362   -0.2650 OS        1 <0>       -0.44648
     11 H1          2.7138    3.1735   -0.2184 HC        1 <0>        0.04111
     12 H2          3.4180    1.7037   -0.9337 HC        1 <0>        0.04111
     13 H3          3.0907    3.0975   -1.9561 HC        1 <0>        0.04111
     14 H4         -0.6921   -3.0856    1.5016 HC        1 <0>        0.04296
     15 H5          0.4478   -2.2624    2.5559 HC        1 <0>        0.04296
     16 H6          1.0342   -3.4964    1.4146 HC        1 <0>        0.04296
     17 H7         -1.4961    2.5189   -0.8189 HC        1 <0>        0.04778
     18 H8         -2.5148    1.2473   -0.1737 HC        1 <0>        0.04778
     19 H9         -1.3981    2.1338    0.9018 HC        1 <0>        0.04778
     20 H10        -0.3674   -0.0273    1.6663 HC        1 <0>        0.06503
     21 H11        -1.5205   -0.8999    0.6311 HC        1 <0>        0.06503
     22 H12         1.3351    1.3484   -2.2650 H1        1 <0>        0.03733
     23 H13         0.6257    2.8180   -1.5472 H1        1 <0>        0.03733
     24 H14         1.5325   -1.2028    0.5552 H1        1 <0>        0.05932
     25 H15         1.0306   -2.8822   -0.8672 HO        1 <0>        0.40844
     26 H16        -1.5200   -0.3521   -1.6614 HO        1 <0>        0.43700
@<TRIPOS>BOND
     1    1    5 1
     2    2    6 1
     3    3    7 1
     4    4    6 1
     5    4    7 1
     6    5   10 1
     7    6    8 1
     8    7    9 1
     9    7   10 1
    10    1   11 1
    11    1   12 1
    12    1   13 1
    13    2   14 1
    14    2   15 1
    15    2   16 1
    16    3   17 1
    17    3   18 1
    18    3   19 1
    19    4   20 1
    20    4   21 1
    21    5   22 1
    22    5   23 1
    23    6   24 1
    24    8   25 1
    25    9   26 1
@<TRIPOS>SUBSTRUCTURE
     1 <0>         1 GROUP 0 A     ****
