@<TRIPOS>MOLECULE
AlkEthOH_c1228
   30    29     1     0     0
SMALL
USER_CHARGES

@<TRIPOS>ATOM
      1 C1         -2.6586   -1.4202    2.2851 CT        1 <0>       -0.09668
      2 C2         -0.4861    0.3780   -0.9588 CT        1 <0>       -0.12187
      3 C3         -5.0959    0.9014   -0.9379 CT        1 <0>       -0.08622
      4 C4         -4.7563    1.7190   -3.2812 CT        1 <0>       -0.08622
      5 C5         -3.7842    2.9832   -1.3628 CT        1 <0>       -0.08622
      6 C6         -2.7630    0.7761   -1.9617 CT        1 <0>       -0.06820
      7 C7         -2.0939   -0.2580    1.4964 CT        1 <0>        0.12763
      8 C8         -1.9541    0.6663   -0.6598 CT        1 <0>        0.13960
      9 C9         -4.0999    1.5714   -1.8998 CT        1 <0>       -0.05238
     10 O1         -2.4604   -0.4032    0.1319 OS        1 <0>       -0.42189
     11 H1         -3.7498   -1.4441    2.2175 HC        1 <0>        0.04390
     12 H2         -2.2604   -2.3696    1.9121 HC        1 <0>        0.04390
     13 H3         -2.3715   -1.3469    3.3393 HC        1 <0>        0.04390
     14 H4         -0.3713   -0.5402   -1.5430 HC        1 <0>        0.04112
     15 H5         -0.0399    1.2047   -1.5221 HC        1 <0>        0.04112
     16 H6          0.0911    0.2811   -0.0325 HC        1 <0>        0.04112
     17 H7         -4.6720    0.7742    0.0634 HC        1 <0>        0.03440
     18 H8         -5.3794   -0.0951   -1.2963 HC        1 <0>        0.03440
     19 H9         -6.0133    1.4930   -0.8433 HC        1 <0>        0.03440
     20 H10        -4.0744    2.1939   -3.9950 HC        1 <0>        0.03440
     21 H11        -5.6587    2.3388   -3.2236 HC        1 <0>        0.03440
     22 H12        -5.0632    0.7517   -3.6913 HC        1 <0>        0.03440
     23 H13        -3.0754    3.5051   -2.0156 HC        1 <0>        0.03440
     24 H14        -4.6899    3.5969   -1.2984 HC        1 <0>        0.03440
     25 H15        -3.3441    2.9367   -0.3601 HC        1 <0>        0.03440
     26 H16        -2.9856   -0.2399   -2.3163 HC        1 <0>        0.05205
     27 H17        -2.1271    1.2422   -2.7267 HC        1 <0>        0.05205
     28 H18        -1.0023   -0.2398    1.5681 H1        1 <0>        0.02263
     29 H19        -2.4934    0.6896    1.8697 H1        1 <0>        0.02263
     30 H20        -2.0232    1.5890   -0.0764 H1        1 <0>        0.03843
@<TRIPOS>BOND
     1    1    7 1
     2    2    8 1
     3    3    9 1
     4    4    9 1
     5    5    9 1
     6    6    8 1
     7    6    9 1
     8    7   10 1
     9    8   10 1
    10    1   11 1
    11    1   12 1
    12    1   13 1
    13    2   14 1
    14    2   15 1
    15    2   16 1
    16    3   17 1
    17    3   18 1
    18    3   19 1
    19    4   20 1
    20    4   21 1
    21    4   22 1
    22    5   23 1
    23    5   24 1
    24    5   25 1
    25    6   26 1
    26    6   27 1
    27    7   28 1
    28    7   29 1
    29    8   30 1
@<TRIPOS>SUBSTRUCTURE
     1 <0>         1 GROUP 0 A     ****
