@<TRIPOS>MOLECULE
AlkEthOH_c676
   22    21     1     0     0
SMALL
USER_CHARGES

@<TRIPOS>ATOM
      1 C1         -0.8772    0.2946    0.4617 CT        1 <0>       -0.12944
      2 C2         -1.8997    3.7156   -3.1002 CT        1 <0>       -0.12196
      3 C3         -4.7590    3.0705   -2.3966 CT        1 <0>        0.11790
      4 C4         -1.4311    2.0113   -1.3010 CT        1 <0>       -0.06874
      5 C5         -1.9511    0.8237   -0.4803 CT        1 <0>        0.13832
      6 C6         -2.4683    2.5565   -2.2917 CT        1 <0>        0.13739
      7 O1         -2.3390   -0.2218   -1.3672 OH        1 <0>       -0.60638
      8 O2         -3.6067    3.0163   -1.5688 OS        1 <0>       -0.42500
      9 H1          0.0188   -0.0104   -0.0874 HC        1 <0>        0.04165
     10 H2         -1.2469   -0.5616    1.0365 HC        1 <0>        0.04165
     11 H3         -0.5939    1.0627    1.1895 HC        1 <0>        0.04165
     12 H4         -1.5653    4.5189   -2.4348 HC        1 <0>        0.04087
     13 H5         -1.0227    3.3995   -3.6759 HC        1 <0>        0.04087
     14 H6         -2.6450    4.1235   -3.7895 HC        1 <0>        0.04087
     15 H7         -5.6116    3.4260   -1.8127 H1        1 <0>        0.03140
     16 H8         -4.9679    2.0755   -2.7975 H1        1 <0>        0.03140
     17 H9         -4.5717    3.7618   -3.2217 H1        1 <0>        0.03140
     18 H10        -1.1343    2.8104   -0.6099 HC        1 <0>        0.05564
     19 H11        -0.5401    1.7027   -1.8623 HC        1 <0>        0.05564
     20 H12        -2.8315    1.1192    0.1008 H1        1 <0>        0.04985
     21 H13        -2.7968    1.7641   -2.9730 H1        1 <0>        0.05737
     22 H14        -2.6809   -0.9412   -0.8140 HO        1 <0>        0.39765
@<TRIPOS>BOND
     1    1    5 1
     2    2    6 1
     3    3    8 1
     4    4    5 1
     5    4    6 1
     6    5    7 1
     7    6    8 1
     8    1    9 1
     9    1   10 1
    10    1   11 1
    11    2   12 1
    12    2   13 1
    13    2   14 1
    14    3   15 1
    15    3   16 1
    16    3   17 1
    17    4   18 1
    18    4   19 1
    19    5   20 1
    20    6   21 1
    21    7   22 1
@<TRIPOS>SUBSTRUCTURE
     1 <0>         1 GROUP 0 A     ****
