@<TRIPOS>MOLECULE
AlkEthOH_c356
   27    26     1     0     0
SMALL
USER_CHARGES

@<TRIPOS>ATOM
      1 C1          2.1199    2.8582   -2.1853 CT        1 <0>       -0.09247
      2 C2          2.0077    1.3352   -0.2022 CT        1 <0>       -0.09247
      3 C3         -1.2808    0.2311   -4.4533 CT        1 <0>       -0.08964
      4 C4          0.3636   -0.4367   -6.2115 CT        1 <0>       -0.08964
      5 C5          1.0793    0.5892   -2.4553 CT        1 <0>       -0.10895
      6 C6          2.1631    1.3992   -1.7220 CT        1 <0>       -0.07067
      7 C7          0.1280   -0.3221   -4.7024 CT        1 <0>       -0.06176
      8 C8          1.1874    0.5485   -3.9895 CT        1 <0>        0.14624
      9 O1          2.4920    0.0660   -4.3257 OH        1 <0>       -0.60247
     10 H1          1.1547    3.3216   -1.9535 HC        1 <0>        0.03485
     11 H2          2.2791    2.9276   -3.2667 HC        1 <0>        0.03485
     12 H3          2.9038    3.4455   -1.6954 HC        1 <0>        0.03485
     13 H4          1.0323    1.7205    0.1136 HC        1 <0>        0.03485
     14 H5          2.1045    0.3094    0.1656 HC        1 <0>        0.03485
     15 H6          2.7821    1.9313    0.2926 HC        1 <0>        0.03485
     16 H7         -1.3768    1.2447   -4.8568 HC        1 <0>        0.03618
     17 H8         -2.0505   -0.3949   -4.9170 HC        1 <0>        0.03618
     18 H9         -1.4919    0.2804   -3.3796 HC        1 <0>        0.03618
     19 H10         0.3472    0.5459   -6.6926 HC        1 <0>        0.03618
     20 H11        -0.3935   -1.0651   -6.6919 HC        1 <0>        0.03618
     21 H12         1.3442   -0.8802   -6.4158 HC        1 <0>        0.03618
     22 H13         1.0918   -0.4460   -2.0857 HC        1 <0>        0.05219
     23 H14         0.0866    0.9658   -2.1747 HC        1 <0>        0.05219
     24 H15         3.1511    1.0041   -1.9853 HC        1 <0>        0.04317
     25 H16         0.1551   -1.3321   -4.2768 HC        1 <0>        0.05774
     26 H17         1.1250    1.5705   -4.3815 H1        1 <0>        0.03175
     27 H18         3.1201    0.6922   -3.9378 HO        1 <0>        0.39861
@<TRIPOS>BOND
     1    1    6 1
     2    2    6 1
     3    3    7 1
     4    4    7 1
     5    5    6 1
     6    5    8 1
     7    7    8 1
     8    8    9 1
     9    1   10 1
    10    1   11 1
    11    1   12 1
    12    2   13 1
    13    2   14 1
    14    2   15 1
    15    3   16 1
    16    3   17 1
    17    3   18 1
    18    4   19 1
    19    4   20 1
    20    4   21 1
    21    5   22 1
    22    5   23 1
    23    6   24 1
    24    7   25 1
    25    8   26 1
    26    9   27 1
@<TRIPOS>SUBSTRUCTURE
     1 <0>         1 GROUP 0 A     ****
