@<TRIPOS>MOLECULE
AlkEthOH_c1006
   19    18     1     0     0
SMALL
USER_CHARGES

@<TRIPOS>ATOM
      1 C1         -0.0180   -2.1330    0.0536 CT        1 <0>       -0.08991
      2 C2         -2.3019    1.9096    1.6944 CT        1 <0>       -0.09767
      3 C3          0.3516   -1.0384   -0.9358 CT        1 <0>       -0.10545
      4 C4         -0.8901    1.6638    1.2064 CT        1 <0>        0.13741
      5 C5          0.3872    0.3493   -0.2938 CT        1 <0>        0.32789
      6 O1          0.7818    1.2727   -1.3053 OH        1 <0>       -0.62194
      7 O2         -0.9129    0.6416    0.2195 OS        1 <0>       -0.45857
      8 H1          0.6871   -2.1579    0.8905 HC        1 <0>        0.03957
      9 H2         -1.0249   -1.9845    0.4557 HC        1 <0>        0.03957
     10 H3          0.0058   -3.1102   -0.4389 HC        1 <0>        0.03957
     11 H4         -2.9481    2.2319    0.8731 HC        1 <0>        0.04348
     12 H5         -2.7209    1.0004    2.1380 HC        1 <0>        0.04348
     13 H6         -2.3122    2.6782    2.4744 HC        1 <0>        0.04348
     14 H7         -0.3757   -1.0449   -1.7576 HC        1 <0>        0.05668
     15 H8          1.3271   -1.2623   -1.3843 HC        1 <0>        0.05668
     16 H9         -0.2492    1.3418    2.0326 H1        1 <0>        0.03195
     17 H10        -0.4734    2.5729    0.7628 H1        1 <0>        0.03195
     18 H11         1.1311    0.3595    0.5129 H2        1 <0>        0.07259
     19 H12         1.6612    0.9998   -1.6172 HO        1 <0>        0.40924
@<TRIPOS>BOND
     1    1    3 1
     2    2    4 1
     3    3    5 1
     4    4    7 1
     5    5    6 1
     6    5    7 1
     7    1    8 1
     8    1    9 1
     9    1   10 1
    10    2   11 1
    11    2   12 1
    12    2   13 1
    13    3   14 1
    14    3   15 1
    15    4   16 1
    16    4   17 1
    17    5   18 1
    18    6   19 1
@<TRIPOS>SUBSTRUCTURE
     1 <0>         1 GROUP 0 A     ****
