@<TRIPOS>MOLECULE
AlkEthOH_c514
   22    21     1     0     0
SMALL
USER_CHARGES

@<TRIPOS>ATOM
      1 C1          0.5407   -0.9995   -2.8264 CT        1 <0>       -0.10600
      2 C2          2.3737   -1.7551   -1.2705 CT        1 <0>       -0.10600
      3 C3         -1.3870   -0.0280   -0.0281 CT        1 <0>       -0.13165
      4 C4          0.2117    1.6684    0.8662 CT        1 <0>       -0.13165
      5 C5          0.9791   -1.1574   -1.3784 CT        1 <0>        0.14875
      6 C6          0.0686    0.2298    0.3677 CT        1 <0>        0.34778
      7 O1          0.4413   -0.6121    1.4590 OH        1 <0>       -0.62129
      8 O2          0.9647    0.1133   -0.7445 OS        1 <0>       -0.41472
      9 H1          1.2352   -0.3643   -3.3846 HC        1 <0>        0.04196
     10 H2          0.4884   -1.9771   -3.3174 HC        1 <0>        0.04196
     11 H3         -0.4620   -0.5623   -2.8895 HC        1 <0>        0.04196
     12 H4          3.1119   -1.1380   -1.7917 HC        1 <0>        0.04196
     13 H5          2.3914   -2.7616   -1.7022 HC        1 <0>        0.04196
     14 H6          2.6789   -1.8568   -0.2232 HC        1 <0>        0.04196
     15 H7         -1.5212   -1.0532   -0.3903 HC        1 <0>        0.05092
     16 H8         -2.0651    0.1483    0.8132 HC        1 <0>        0.05092
     17 H9         -1.6987    0.6296   -0.8467 HC        1 <0>        0.05092
     18 H10         1.2499    1.8720    1.1549 HC        1 <0>        0.05092
     19 H11        -0.4094    1.8503    1.7500 HC        1 <0>        0.05092
     20 H12        -0.0536    2.3899    0.0860 HC        1 <0>        0.05092
     21 H13         0.2656   -1.7965   -0.8482 H1        1 <0>        0.05013
     22 H14        -0.1424   -0.4132    2.2102 HO        1 <0>        0.40737
@<TRIPOS>BOND
     1    1    5 1
     2    2    5 1
     3    3    6 1
     4    4    6 1
     5    5    8 1
     6    6    7 1
     7    6    8 1
     8    1    9 1
     9    1   10 1
    10    1   11 1
    11    2   12 1
    12    2   13 1
    13    2   14 1
    14    3   15 1
    15    3   16 1
    16    3   17 1
    17    4   18 1
    18    4   19 1
    19    4   20 1
    20    5   21 1
    21    7   22 1
@<TRIPOS>SUBSTRUCTURE
     1 <0>         1 GROUP 0 A     ****
