@<TRIPOS>MOLECULE
AlkEthOH_c215
   25    24     1     0     0
SMALL
USER_CHARGES

@<TRIPOS>ATOM
      1 C1          0.3456   -0.8097    1.7853 CT        1 <0>       -0.08878
      2 C2         -1.5082   -0.7618    0.1095 CT        1 <0>       -0.08878
      3 C3         -0.3042    1.3734    0.7660 CT        1 <0>       -0.07826
      4 C4          0.8822   -0.3695   -0.6607 CT        1 <0>       -0.07826
      5 C5         -0.7246    2.2404   -0.4178 CT        1 <0>        0.13128
      6 C6          2.2659    0.2388   -0.4429 CT        1 <0>        0.13128
      7 C7         -0.1457   -0.1479    0.4807 CT        1 <0>       -0.04628
      8 O1         -0.8476    3.5862    0.0303 OH        1 <0>       -0.60613
      9 O2          3.0632   -0.0299   -1.5914 OH        1 <0>       -0.60613
     10 H1          1.3162   -0.4042    2.0919 HC        1 <0>        0.03614
     11 H2         -0.3614   -0.6373    2.6051 HC        1 <0>        0.03614
     12 H3          0.4516   -1.8943    1.6786 HC        1 <0>        0.03614
     13 H4         -1.9081   -0.3280   -0.8133 HC        1 <0>        0.03614
     14 H5         -1.4217   -1.8422   -0.0526 HC        1 <0>        0.03614
     15 H6         -2.2520   -0.5985    0.8963 HC        1 <0>        0.03614
     16 H7         -1.0358    1.5216    1.5728 HC        1 <0>        0.05396
     17 H8          0.6382    1.7714    1.1677 HC        1 <0>        0.05396
     18 H9          1.0172   -1.4438   -0.8399 HC        1 <0>        0.05396
     19 H10         0.4772    0.0274   -1.6017 HC        1 <0>        0.05396
     20 H11        -1.6927    1.9291   -0.8192 H1        1 <0>        0.02488
     21 H12         0.0214    2.2205   -1.2165 H1        1 <0>        0.02488
     22 H13         2.2123    1.3238   -0.3195 H1        1 <0>        0.02488
     23 H14         2.7652   -0.2000    0.4251 H1        1 <0>        0.02488
     24 H15        -1.1147    4.1119   -0.7401 HO        1 <0>        0.39893
     25 H16         3.9327    0.3668   -1.4249 HO        1 <0>        0.39893
@<TRIPOS>BOND
     1    1    7 1
     2    2    7 1
     3    3    5 1
     4    3    7 1
     5    4    6 1
     6    4    7 1
     7    5    8 1
     8    6    9 1
     9    1   10 1
    10    1   11 1
    11    1   12 1
    12    2   13 1
    13    2   14 1
    14    2   15 1
    15    3   16 1
    16    3   17 1
    17    4   18 1
    18    4   19 1
    19    5   20 1
    20    5   21 1
    21    6   22 1
    22    6   23 1
    23    8   24 1
    24    9   25 1
@<TRIPOS>SUBSTRUCTURE
     1 <0>         1 GROUP 0 A     ****
