@<TRIPOS>MOLECULE
AlkEthOH_c218
   19    18     1     0     0
SMALL
USER_CHARGES

@<TRIPOS>ATOM
      1 C1          0.9511   -0.3029    0.4536 CT        1 <0>       -0.12361
      2 C2         -0.0965   -0.0035    2.7071 CT        1 <0>       -0.12361
      3 C3          2.0341   -1.3283    2.5217 CT        1 <0>       -0.06954
      4 C4          2.9124   -2.3063    1.7439 CT        1 <0>        0.13418
      5 C5          0.7167   -0.9506    1.8190 CT        1 <0>        0.15088
      6 O1          4.0835   -2.5987    2.4977 OH        1 <0>       -0.60651
      7 O2         -0.0614   -2.1299    1.6054 OH        1 <0>       -0.60039
      8 H1          1.5313   -0.9566   -0.2063 HC        1 <0>        0.04315
      9 H2         -0.0011   -0.1288   -0.0613 HC        1 <0>        0.04315
     10 H3          1.4719    0.6556    0.5466 HC        1 <0>        0.04315
     11 H4         -0.2827   -0.4378    3.6949 HC        1 <0>        0.04315
     12 H5          0.4244    0.9518    2.8392 HC        1 <0>        0.04315
     13 H6         -1.0619    0.2337    2.2454 HC        1 <0>        0.04315
     14 H7          1.8108   -1.7879    3.4942 HC        1 <0>        0.06179
     15 H8          2.6151   -0.4250    2.7481 HC        1 <0>        0.06179
     16 H9          2.3899   -3.2500    1.5623 H1        1 <0>        0.02961
     17 H10         3.2267   -1.8936    0.7811 H1        1 <0>        0.02961
     18 H11         4.6078   -3.2197    1.9676 HO        1 <0>        0.39883
     19 H12        -0.8897   -1.8393    1.1957 HO        1 <0>        0.39807
@<TRIPOS>BOND
     1    1    5 1
     2    2    5 1
     3    3    4 1
     4    3    5 1
     5    4    6 1
     6    5    7 1
     7    1    8 1
     8    1    9 1
     9    1   10 1
    10    2   11 1
    11    2   12 1
    12    2   13 1
    13    3   14 1
    14    3   15 1
    15    4   16 1
    16    4   17 1
    17    6   18 1
    18    7   19 1
@<TRIPOS>SUBSTRUCTURE
     1 <0>         1 GROUP 0 A     ****
