@<TRIPOS>MOLECULE
AlkEthOH_c572
   20    19     1     0     0
SMALL
USER_CHARGES

@<TRIPOS>ATOM
      1 C1         -0.6157   -0.8277   -2.9013 CT        1 <0>       -0.10759
      2 C2          1.3135   -0.0046   -1.5040 CT        1 <0>       -0.10759
      3 C3          0.4404   -2.8203    1.3446 CT        1 <0>        0.12720
      4 C4          0.1857   -1.0185   -1.6227 CT        1 <0>        0.14167
      5 C5         -1.2931   -2.1257   -0.1183 CT        1 <0>        0.50990
      6 O1         -2.2398   -1.9444    0.9369 OH        1 <0>       -0.60004
      7 O2         -0.3607   -3.1581    0.2198 OS        1 <0>       -0.49074
      8 O3         -0.6809   -0.8878   -0.5033 OS        1 <0>       -0.42474
      9 H1         -1.0450    0.1774   -2.9547 HC        1 <0>        0.04516
     10 H2          0.0226   -0.9828   -3.7778 HC        1 <0>        0.04516
     11 H3         -1.4279   -1.5598   -2.9707 HC        1 <0>        0.04516
     12 H4          0.9302    1.0202   -1.5242 HC        1 <0>        0.04516
     13 H5          2.0253   -0.1283   -2.3272 HC        1 <0>        0.04516
     14 H6          1.8776   -0.1494   -0.5761 HC        1 <0>        0.04516
     15 H7          1.1319   -3.6387    1.5594 H1        1 <0>        0.04049
     16 H8         -0.2026   -2.6360    2.2089 H1        1 <0>        0.04049
     17 H9          1.0095   -1.9158    1.1169 H1        1 <0>        0.04049
     18 H10         0.6010   -2.0313   -1.5994 H1        1 <0>        0.05406
     19 H11        -1.8681   -2.4621   -0.9897 H3        1 <0>        0.08245
     20 H12        -2.7083   -2.7872    1.0598 HO        1 <0>        0.42299
@<TRIPOS>BOND
     1    1    4 1
     2    2    4 1
     3    3    7 1
     4    4    8 1
     5    5    6 1
     6    5    7 1
     7    5    8 1
     8    1    9 1
     9    1   10 1
    10    1   11 1
    11    2   12 1
    12    2   13 1
    13    2   14 1
    14    3   15 1
    15    3   16 1
    16    3   17 1
    17    4   18 1
    18    5   19 1
    19    6   20 1
@<TRIPOS>SUBSTRUCTURE
     1 <0>         1 GROUP 0 A     ****
