@<TRIPOS>MOLECULE
AlkEthOH_c908
   27    26     1     0     0
SMALL
USER_CHARGES

@<TRIPOS>ATOM
      1 C1          2.3354    1.5250   -0.9557 CT        1 <0>       -0.09037
      2 C2         -1.8341    0.5648    0.7636 CT        1 <0>       -0.08838
      3 C3         -1.1618   -1.8380    0.8663 CT        1 <0>       -0.08838
      4 C4         -1.4918   -0.7414   -1.3326 CT        1 <0>       -0.08838
      5 C5          1.1429    0.1235    1.5042 CT        1 <0>       -0.08664
      6 C6          0.8604    1.1641   -0.7881 CT        1 <0>       -0.10853
      7 C7         -0.9481   -0.5098    0.0984 CT        1 <0>       -0.07442
      8 C8          0.5845   -0.0931    0.0853 CT        1 <0>        0.16325
      9 O1          1.3489   -1.1802   -0.4623 OH        1 <0>       -0.59931
     10 H1          2.8163    1.7106    0.0088 HC        1 <0>        0.03722
     11 H2          2.4273    2.4427   -1.5463 HC        1 <0>        0.03722
     12 H3          2.8863    0.7364   -1.4768 HC        1 <0>        0.03722
     13 H4         -1.7351    1.5370    0.2713 HC        1 <0>        0.03663
     14 H5         -1.5918    0.6928    1.8233 HC        1 <0>        0.03663
     15 H6         -2.8933    0.2857    0.7108 HC        1 <0>        0.03663
     16 H7         -0.5596   -2.6499    0.4453 HC        1 <0>        0.03663
     17 H8         -2.2107   -2.1548    0.8190 HC        1 <0>        0.03663
     18 H9         -0.9130   -1.7434    1.9275 HC        1 <0>        0.03663
     19 H10        -0.9114   -1.4959   -1.8726 HC        1 <0>        0.03663
     20 H11        -2.5406   -1.0548   -1.3242 HC        1 <0>        0.03663
     21 H12        -1.4360    0.1785   -1.9276 HC        1 <0>        0.03663
     22 H13         0.9604   -0.7504    2.1398 HC        1 <0>        0.04526
     23 H14         2.2189    0.3198    1.4964 HC        1 <0>        0.04526
     24 H15         0.6404    0.9472    2.0192 HC        1 <0>        0.04526
     25 H16         0.4753    0.9995   -1.8005 HC        1 <0>        0.04345
     26 H17         0.3404    2.0366   -0.3789 HC        1 <0>        0.04345
     27 H18         1.0043   -1.3226   -1.3538 HO        1 <0>        0.39715
@<TRIPOS>BOND
     1    1    6 1
     2    2    7 1
     3    3    7 1
     4    4    7 1
     5    5    8 1
     6    6    8 1
     7    7    8 1
     8    8    9 1
     9    1   10 1
    10    1   11 1
    11    1   12 1
    12    2   13 1
    13    2   14 1
    14    2   15 1
    15    3   16 1
    16    3   17 1
    17    3   18 1
    18    4   19 1
    19    4   20 1
    20    4   21 1
    21    5   22 1
    22    5   23 1
    23    5   24 1
    24    6   25 1
    25    6   26 1
    26    9   27 1
@<TRIPOS>SUBSTRUCTURE
     1 <0>         1 GROUP 0 A     ****
