@<TRIPOS>MOLECULE
AlkEthOH_c579
   21    20     1     0     0
SMALL
USER_CHARGES

@<TRIPOS>ATOM
      1 C1          2.1472   -0.8204   -2.4518 CT        1 <0>       -0.10737
      2 C2         -0.3556   -0.8945   -2.1659 CT        1 <0>       -0.10737
      3 C3          2.3906    2.0835    0.4476 CT        1 <0>        0.33067
      4 C4          0.9440   -0.2375   -1.7264 CT        1 <0>        0.14278
      5 C5          0.5036    0.6236    0.4505 CT        1 <0>        0.51843
      6 O1          2.6532    2.4093    1.8040 OH        1 <0>       -0.63444
      7 O2          0.5877    0.3574    1.8525 OH        1 <0>       -0.61253
      8 O3          1.0027    1.9344    0.1623 OS        1 <0>       -0.47792
      9 O4          1.1094   -0.4178   -0.3260 OS        1 <0>       -0.43721
     10 H1          2.2286   -1.8985   -2.2834 HC        1 <0>        0.04539
     11 H2          2.0672   -0.6394   -3.5291 HC        1 <0>        0.04539
     12 H3          3.0764   -0.3430   -2.1213 HC        1 <0>        0.04539
     13 H4         -0.3340   -1.9744   -1.9908 HC        1 <0>        0.04539
     14 H5         -0.5312   -0.7163   -3.2323 HC        1 <0>        0.04539
     15 H6         -1.2124   -0.4700   -1.6310 HC        1 <0>        0.04539
     16 H7          2.9569    1.1918    0.1555 H2        1 <0>        0.05470
     17 H8          2.7545    2.9171   -0.1599 H2        1 <0>        0.05470
     18 H9          0.8906    0.8398   -1.9144 H1        1 <0>        0.04983
     19 H10        -0.5642    0.6028    0.2019 H3        1 <0>        0.09169
     20 H11         3.6176    2.4890    1.8978 HO        1 <0>        0.41409
     21 H12         0.0511    1.0255    2.3116 HO        1 <0>        0.44761
@<TRIPOS>BOND
     1    1    4 1
     2    2    4 1
     3    3    6 1
     4    3    8 1
     5    4    9 1
     6    5    7 1
     7    5    8 1
     8    5    9 1
     9    1   10 1
    10    1   11 1
    11    1   12 1
    12    2   13 1
    13    2   14 1
    14    2   15 1
    15    3   16 1
    16    3   17 1
    17    4   18 1
    18    5   19 1
    19    6   20 1
    20    7   21 1
@<TRIPOS>SUBSTRUCTURE
     1 <0>         1 GROUP 0 A     ****
