@<TRIPOS>MOLECULE
AlkEthOH_c1239
   28    27     1     0     0
SMALL
USER_CHARGES

@<TRIPOS>ATOM
      1 C1         -2.1997    1.7783   -2.9577 CT        1 <0>       -0.09546
      2 C2         -0.0326   -1.0089   -0.4213 CT        1 <0>       -0.12665
      3 C3          2.4211   -2.4711   -2.1524 CT        1 <0>       -0.10774
      4 C4          1.1216   -4.1589   -3.4835 CT        1 <0>       -0.10774
      5 C5          1.3298   -1.7994   -4.3186 CT        1 <0>       -0.10774
      6 C6         -0.9532    1.1285   -2.3958 CT        1 <0>        0.13276
      7 C7          0.0350   -0.9855   -1.9430 CT        1 <0>        0.33166
      8 C8          1.2274   -2.6896   -3.0809 CT        1 <0>        0.15349
      9 O1         -1.1004   -0.2838   -2.4553 OS        1 <0>       -0.42030
     10 O2          0.0393   -2.3517   -2.3774 OS        1 <0>       -0.40636
     11 H1         -2.3553    1.4873   -4.0003 HC        1 <0>        0.04587
     12 H2         -3.0810    1.4908   -2.3750 HC        1 <0>        0.04587
     13 H3         -2.1241    2.8694   -2.9030 HC        1 <0>        0.04587
     14 H4         -0.9633   -1.4805   -0.0861 HC        1 <0>        0.04908
     15 H5         -0.0085    0.0004   -0.0004 HC        1 <0>        0.04908
     16 H6          0.7968   -1.5881   -0.0030 HC        1 <0>        0.04908
     17 H7          2.5005   -1.4176   -1.8611 HC        1 <0>        0.04390
     18 H8          2.3423   -3.0779   -1.2444 HC        1 <0>        0.04390
     19 H9          3.3606   -2.7239   -2.6571 HC        1 <0>        0.04390
     20 H10         0.2665   -4.3203   -4.1497 HC        1 <0>        0.04390
     21 H11         0.9528   -4.7930   -2.6055 HC        1 <0>        0.04390
     22 H12         2.0274   -4.5048   -3.9919 HC        1 <0>        0.04390
     23 H13         0.4737   -1.9560   -4.9848 HC        1 <0>        0.04390
     24 H14         1.3695   -0.7387   -4.0504 HC        1 <0>        0.04390
     25 H15         2.2246   -2.0448   -4.9021 HC        1 <0>        0.04390
     26 H16        -0.8033    1.4236   -1.3530 H1        1 <0>        0.01994
     27 H17        -0.0737    1.4162   -2.9796 H1        1 <0>        0.01994
     28 H18         0.9718   -0.5106   -2.2632 H2        1 <0>        0.03425
@<TRIPOS>BOND
     1    1    6 1
     2    2    7 1
     3    3    8 1
     4    4    8 1
     5    5    8 1
     6    6    9 1
     7    7    9 1
     8    7   10 1
     9    8   10 1
    10    1   11 1
    11    1   12 1
    12    1   13 1
    13    2   14 1
    14    2   15 1
    15    2   16 1
    16    3   17 1
    17    3   18 1
    18    3   19 1
    19    4   20 1
    20    4   21 1
    21    4   22 1
    22    5   23 1
    23    5   24 1
    24    5   25 1
    25    6   26 1
    26    6   27 1
    27    7   28 1
@<TRIPOS>SUBSTRUCTURE
     1 <0>         1 GROUP 0 A     ****
