@<TRIPOS>MOLECULE
AlkEthOH_c176
   18    17     1     0     0
SMALL
USER_CHARGES

@<TRIPOS>ATOM
      1 C1         -0.4645   -0.0646    0.9894 CT        1 <0>       -0.10720
      2 C2          1.6273    0.6910    2.1567 CT        1 <0>       -0.10720
      3 C3          1.2036   -1.7604    1.8118 CT        1 <0>       -0.10720
      4 C4         -1.1266   -1.4328    3.3392 CT        1 <0>        0.11785
      5 C5          0.5609   -0.3988    2.0719 CT        1 <0>        0.14709
      6 O1         -0.1082   -0.4451    3.3327 OS        1 <0>       -0.42175
      7 H1         -1.2317   -0.8445    0.9253 HC        1 <0>        0.04292
      8 H2         -0.9578    0.8935    1.1830 HC        1 <0>        0.04292
      9 H3          0.0103   -0.0162    0.0027 HC        1 <0>        0.04292
     10 H4          2.3651    0.4554    2.9322 HC        1 <0>        0.04292
     11 H5          1.1816    1.6524    2.4367 HC        1 <0>        0.04292
     12 H6          2.1531    0.8168    1.2047 HC        1 <0>        0.04292
     13 H7          1.9391   -2.0003    2.5882 HC        1 <0>        0.04292
     14 H8          0.4566   -2.5604    1.7845 HC        1 <0>        0.04292
     15 H9          1.7476   -1.7592    0.8603 HC        1 <0>        0.04292
     16 H10        -1.6185   -1.4436    4.3149 H1        1 <0>        0.03071
     17 H11        -0.6875   -2.4115    3.1298 H1        1 <0>        0.03071
     18 H12        -1.8603   -1.1919    2.5664 H1        1 <0>        0.03071
@<TRIPOS>BOND
     1    1    5 1
     2    2    5 1
     3    3    5 1
     4    4    6 1
     5    5    6 1
     6    1    7 1
     7    1    8 1
     8    1    9 1
     9    2   10 1
    10    2   11 1
    11    2   12 1
    12    3   13 1
    13    3   14 1
    14    3   15 1
    15    4   16 1
    16    4   17 1
    17    4   18 1
@<TRIPOS>SUBSTRUCTURE
     1 <0>         1 GROUP 0 A     ****
