@<TRIPOS>MOLECULE
AlkEthOH_c193
   25    24     1     0     0
SMALL
USER_CHARGES

@<TRIPOS>ATOM
      1 C1          0.7534   -0.5253   -0.1625 CT        1 <0>       -0.12284
      2 C2          0.7248   -2.7319    1.0018 CT        1 <0>       -0.12284
      3 C3         -2.0914   -2.7266   -3.1174 CT        1 <0>       -0.12284
      4 C4          0.3454   -2.3578   -3.5384 CT        1 <0>       -0.12284
      5 C5         -0.5721   -2.5220   -1.1323 CT        1 <0>       -0.04998
      6 C6          0.6877   -2.0399   -0.3693 CT        1 <0>        0.15967
      7 C7         -0.8139   -2.0559   -2.5894 CT        1 <0>        0.15967
      8 O1          1.8601   -2.4843   -1.0553 OH        1 <0>       -0.60373
      9 O2         -1.0523   -0.6473   -2.5906 OH        1 <0>       -0.60373
     10 H1          0.7286   -0.0027   -1.1261 HC        1 <0>        0.04379
     11 H2          1.6673   -0.2304    0.3630 HC        1 <0>        0.04379
     12 H3         -0.1116   -0.1534    0.3951 HC        1 <0>        0.04379
     13 H4          0.6793   -3.8217    0.8914 HC        1 <0>        0.04379
     14 H5         -0.1062   -2.4126    1.6392 HC        1 <0>        0.04379
     15 H6          1.6643   -2.5157    1.5238 HC        1 <0>        0.04379
     16 H7         -2.9482   -2.5338   -2.4634 HC        1 <0>        0.04379
     17 H8         -2.3333   -2.3667   -4.1242 HC        1 <0>        0.04379
     18 H9         -1.9598   -3.8115   -3.2034 HC        1 <0>        0.04379
     19 H10         1.2703   -1.8886   -3.1819 HC        1 <0>        0.04379
     20 H11         0.1471   -1.9882   -4.5493 HC        1 <0>        0.04379
     21 H12         0.5634   -3.4286   -3.5806 HC        1 <0>        0.04379
     22 H13        -1.4484   -2.2159   -0.5429 HC        1 <0>        0.05477
     23 H14        -0.5570   -3.6212   -1.1346 HC        1 <0>        0.05477
     24 H15         2.6116   -2.2444   -0.4933 HO        1 <0>        0.39722
     25 H16        -1.2400   -0.4032   -3.5092 HO        1 <0>        0.39722
@<TRIPOS>BOND
     1    1    6 1
     2    2    6 1
     3    3    7 1
     4    4    7 1
     5    5    6 1
     6    5    7 1
     7    6    8 1
     8    7    9 1
     9    1   10 1
    10    1   11 1
    11    1   12 1
    12    2   13 1
    13    2   14 1
    14    2   15 1
    15    3   16 1
    16    3   17 1
    17    3   18 1
    18    4   19 1
    19    4   20 1
    20    4   21 1
    21    5   22 1
    22    5   23 1
    23    8   24 1
    24    9   25 1
@<TRIPOS>SUBSTRUCTURE
     1 <0>         1 GROUP 0 A     ****
