@<TRIPOS>MOLECULE
AlkEthOH_c151
   22    21     1     0     0
SMALL
USER_CHARGES

@<TRIPOS>ATOM
      1 C1          0.0407   -0.3837    1.0255 CT        1 <0>       -0.08767
      2 C2          1.4991   -1.0675    2.9456 CT        1 <0>       -0.08767
      3 C3          2.1016   -1.7302    0.6158 CT        1 <0>       -0.08767
      4 C4          3.8190    0.5719    1.6326 CT        1 <0>        0.09693
      5 C5          2.3342    0.6974    1.2849 CT        1 <0>        0.14500
      6 C6          1.4963   -0.6011    1.4780 CT        1 <0>       -0.08561
      7 O1          4.4396    1.8412    1.4386 OH        1 <0>       -0.58891
      8 O2          2.2430    1.1157   -0.0827 OH        1 <0>       -0.58106
      9 H1         -0.0181   -0.0500   -0.0153 HC        1 <0>        0.03769
     10 H2         -0.5429   -1.3062    1.1191 HC        1 <0>        0.03769
     11 H3         -0.4515    0.3832    1.6351 HC        1 <0>        0.03769
     12 H4          2.5170   -1.2357    3.3129 HC        1 <0>        0.03769
     13 H5          1.0402   -0.3149    3.5973 HC        1 <0>        0.03769
     14 H6          0.9368   -1.9988    3.0728 HC        1 <0>        0.03769
     15 H7          3.1424   -1.9352    0.8891 HC        1 <0>        0.03769
     16 H8          2.0791   -1.4675   -0.4479 HC        1 <0>        0.03769
     17 H9          1.5426   -2.6651    0.7378 HC        1 <0>        0.03769
     18 H10         3.9743    0.2874    2.6757 H1        1 <0>        0.02762
     19 H11         4.3248   -0.1418    0.9751 H1        1 <0>        0.02762
     20 H12         1.8926    1.5057    1.8821 H1        1 <0>        0.08980
     21 H13         5.3751    1.7279    1.6664 HO        1 <0>        0.39814
     22 H14         2.6797    0.4272   -0.6037 HO        1 <0>        0.39427
@<TRIPOS>BOND
     1    1    6 1
     2    2    6 1
     3    3    6 1
     4    4    5 1
     5    4    7 1
     6    5    6 1
     7    5    8 1
     8    1    9 1
     9    1   10 1
    10    1   11 1
    11    2   12 1
    12    2   13 1
    13    2   14 1
    14    3   15 1
    15    3   16 1
    16    3   17 1
    17    4   18 1
    18    4   19 1
    19    5   20 1
    20    7   21 1
    21    8   22 1
@<TRIPOS>SUBSTRUCTURE
     1 <0>         1 GROUP 0 A     ****
