@<TRIPOS>MOLECULE
AlkEthOH_c131
   23    22     1     0     0
SMALL
USER_CHARGES

@<TRIPOS>ATOM
      1 C1         -0.6031    1.1415    1.4432 CT        1 <0>       -0.12284
      2 C2          0.0531   -1.2277    1.8773 CT        1 <0>       -0.12284
      3 C3         -0.3894    0.6096   -1.6020 CT        1 <0>       -0.11372
      4 C4          1.7526    0.0689   -0.3636 CT        1 <0>        0.14086
      5 C5         -0.5201   -0.2647    0.8273 CT        1 <0>        0.12348
      6 C6          0.2592   -0.2850   -0.5326 CT        1 <0>        0.13266
      7 O1          2.4597   -0.1585   -1.5807 OH        1 <0>       -0.59438
      8 O2         -1.8828   -0.6513    0.5866 OH        1 <0>       -0.61125
      9 O3          0.2123   -1.6332   -1.0326 OH        1 <0>       -0.61122
     10 H1         -1.0098    1.8561    0.7170 HC        1 <0>        0.04685
     11 H2         -1.2409    1.1684    2.3312 HC        1 <0>        0.04685
     12 H3          0.3884    1.5221    1.7113 HC        1 <0>        0.04685
     13 H4          0.1341   -2.2480    1.4897 HC        1 <0>        0.04685
     14 H5         -0.6151   -1.2922    2.7445 HC        1 <0>        0.04685
     15 H6          1.0371   -0.9097    2.2337 HC        1 <0>        0.04685
     16 H7         -1.4495    0.3720   -1.7348 HC        1 <0>        0.05169
     17 H8          0.0669    0.4490   -2.5857 HC        1 <0>        0.05169
     18 H9         -0.2960    1.6715   -1.3563 HC        1 <0>        0.05169
     19 H10         2.2236   -0.5628    0.3959 H1        1 <0>        0.05277
     20 H11         1.8889    1.1199   -0.0946 H1        1 <0>        0.05277
     21 H12         3.3840    0.0803   -1.4112 HO        1 <0>        0.41087
     22 H13        -2.3174   -0.6404    1.4498 HO        1 <0>        0.40574
     23 H14        -0.7239   -1.8329   -1.1621 HO        1 <0>        0.42093
@<TRIPOS>BOND
     1    1    5 1
     2    2    5 1
     3    3    6 1
     4    4    6 1
     5    4    7 1
     6    5    6 1
     7    5    8 1
     8    6    9 1
     9    1   10 1
    10    1   11 1
    11    1   12 1
    12    2   13 1
    13    2   14 1
    14    2   15 1
    15    3   16 1
    16    3   17 1
    17    3   18 1
    18    4   19 1
    19    4   20 1
    20    7   21 1
    21    8   22 1
    22    9   23 1
@<TRIPOS>SUBSTRUCTURE
     1 <0>         1 GROUP 0 A     ****
