@<TRIPOS>MOLECULE
AlkEthOH_c391
   34    33     1     0     0
SMALL
USER_CHARGES

@<TRIPOS>ATOM
      1 C1          2.7393   -0.7931    0.3408 CT        1 <0>       -0.09383
      2 C2          3.1840    1.2233    1.7447 CT        1 <0>       -0.09383
      3 C3         -1.4565   -0.9139   -2.6397 CT        1 <0>       -0.12730
      4 C4         -0.6031    1.1808   -3.6905 CT        1 <0>       -0.12730
      5 C5         -1.6932    0.3892    0.5816 CT        1 <0>       -0.07649
      6 C6          0.7739    0.5438    1.1514 CT        1 <0>       -0.10650
      7 C7          0.0547    0.5583   -1.2700 CT        1 <0>       -0.08613
      8 C8          2.2509    0.6165    0.6976 CT        1 <0>       -0.06952
      9 C9         -1.0329    0.5382   -2.3749 CT        1 <0>        0.15812
     10 C10        -0.2780   -0.0077    0.1454 CT        1 <0>        0.16334
     11 O1         -2.1932    1.2403   -1.9199 OH        1 <0>       -0.59818
     12 O2         -0.2048   -1.4295    0.1278 OH        1 <0>       -0.60696
     13 H1          2.6982   -1.4527    1.2143 HC        1 <0>        0.03409
     14 H2          3.7774   -0.7695   -0.0075 HC        1 <0>        0.03409
     15 H3          2.1255   -1.2386   -0.4496 HC        1 <0>        0.03409
     16 H4          3.1532    0.6567    2.6812 HC        1 <0>        0.03409
     17 H5          4.2199    1.2268    1.3879 HC        1 <0>        0.03409
     18 H6          2.9212    2.2628    1.9595 HC        1 <0>        0.03409
     19 H7         -1.7738   -1.4150   -1.7194 HC        1 <0>        0.04433
     20 H8         -0.6342   -1.4875   -3.0831 HC        1 <0>        0.04433
     21 H9         -2.2820   -0.9564   -3.3596 HC        1 <0>        0.04433
     22 H10        -0.2915    2.2204   -3.5500 HC        1 <0>        0.04433
     23 H11        -1.4017    1.1382   -4.4377 HC        1 <0>        0.04433
     24 H12         0.2370    0.6321   -4.1332 HC        1 <0>        0.04433
     25 H13        -2.4478    0.0095   -0.1150 HC        1 <0>        0.04837
     26 H14        -1.9379    0.0178    1.5785 HC        1 <0>        0.04837
     27 H15        -1.7985    1.4770    0.6513 HC        1 <0>        0.04837
     28 H16         0.4687    1.5567    1.4503 HC        1 <0>        0.05335
     29 H17         0.7338   -0.0746    2.0590 HC        1 <0>        0.05335
     30 H18         0.8899   -0.0393   -1.6647 HC        1 <0>        0.05092
     31 H19         0.4488    1.5775   -1.1576 HC        1 <0>        0.05092
     32 H20         2.3187    1.2180   -0.2163 HC        1 <0>        0.04742
     33 H21        -2.8458    1.1756   -2.6323 HO        1 <0>        0.39682
     34 H22         0.6963   -1.6576   -0.1500 HO        1 <0>        0.39617
@<TRIPOS>BOND
     1    1    8 1
     2    2    8 1
     3    3    9 1
     4    4    9 1
     5    5   10 1
     6    6    8 1
     7    6   10 1
     8    7    9 1
     9    7   10 1
    10    9   11 1
    11   10   12 1
    12    1   13 1
    13    1   14 1
    14    1   15 1
    15    2   16 1
    16    2   17 1
    17    2   18 1
    18    3   19 1
    19    3   20 1
    20    3   21 1
    21    4   22 1
    22    4   23 1
    23    4   24 1
    24    5   25 1
    25    5   26 1
    26    5   27 1
    27    6   28 1
    28    6   29 1
    29    7   30 1
    30    7   31 1
    31    8   32 1
    32   11   33 1
    33   12   34 1
@<TRIPOS>SUBSTRUCTURE
     1 <0>         1 GROUP 0 A     ****
