@<TRIPOS>MOLECULE
AlkEthOH_c67
   31    30     1     0     0
SMALL
USER_CHARGES

@<TRIPOS>ATOM
      1 C1          3.1894   -1.3636   -0.0662 CT        1 <0>       -0.13605
      2 C2          1.5945   -0.0176    1.8992 CT        1 <0>       -0.11066
      3 C3          0.0726    1.9714    2.0913 CT        1 <0>       -0.11066
      4 C4         -0.0859    0.4642    0.0884 CT        1 <0>       -0.11066
      5 C5          4.0514    1.2316   -0.0251 CT        1 <0>       -0.09281
      6 C6          2.4074    1.7537   -1.8363 CT        1 <0>       -0.09281
      7 C7          2.1047   -0.3548   -0.4361 CT        1 <0>        0.11424
      8 C8          0.8501    1.0737    1.1312 CT        1 <0>        0.16015
      9 C9          2.5832    1.1163   -0.4553 CT        1 <0>        0.17573
     10 O1          1.6140   -0.7017   -1.7338 OH        1 <0>       -0.59454
     11 O2          1.8020    1.8852    0.4639 OS        1 <0>       -0.43542
     12 H1          4.0502   -1.3023   -0.7372 HC        1 <0>        0.04466
     13 H2          2.8015   -2.3877   -0.0789 HC        1 <0>        0.04466
     14 H3          3.5449   -1.1813    0.9543 HC        1 <0>        0.04466
     15 H4          2.1539   -0.6641    1.2135 HC        1 <0>        0.04343
     16 H5          2.2948    0.4068    2.6260 HC        1 <0>        0.04343
     17 H6          0.8926   -0.6678    2.4337 HC        1 <0>        0.04343
     18 H7         -0.4631    2.7558    1.5446 HC        1 <0>        0.04343
     19 H8          0.7514    2.4849    2.7817 HC        1 <0>        0.04343
     20 H9         -0.6536    1.4008    2.6793 HC        1 <0>        0.04343
     21 H10        -0.6200    1.2468   -0.4625 HC        1 <0>        0.04343
     22 H11         0.4603   -0.1539   -0.6315 HC        1 <0>        0.04343
     23 H12        -0.8529   -0.1549    0.5677 HC        1 <0>        0.04343
     24 H13         4.2172    0.7852    0.9616 HC        1 <0>        0.04433
     25 H14         4.3479    2.2830    0.0670 HC        1 <0>        0.04433
     26 H15         4.7189    0.7461   -0.7445 HC        1 <0>        0.04433
     27 H16         1.3693    1.6911   -2.1791 HC        1 <0>        0.04433
     28 H17         2.6447    2.8237   -1.8031 HC        1 <0>        0.04433
     29 H18         3.0541    1.2815   -2.5828 HC        1 <0>        0.04433
     30 H19         1.2658   -0.4552    0.2633 H1        1 <0>        0.04588
     31 H20         1.2604   -1.6002   -1.6589 HO        1 <0>        0.39678
@<TRIPOS>BOND
     1    1    7 1
     2    2    8 1
     3    3    8 1
     4    4    8 1
     5    5    9 1
     6    6    9 1
     7    7    9 1
     8    7   10 1
     9    8   11 1
    10    9   11 1
    11    1   12 1
    12    1   13 1
    13    1   14 1
    14    2   15 1
    15    2   16 1
    16    2   17 1
    17    3   18 1
    18    3   19 1
    19    3   20 1
    20    4   21 1
    21    4   22 1
    22    4   23 1
    23    5   24 1
    24    5   25 1
    25    5   26 1
    26    6   27 1
    27    6   28 1
    28    6   29 1
    29    7   30 1
    30   10   31 1
@<TRIPOS>SUBSTRUCTURE
     1 <0>         1 GROUP 0 A     ****
