@<TRIPOS>MOLECULE
AlkEthOH_c223
   23    22     1     0     0
SMALL
USER_CHARGES

@<TRIPOS>ATOM
      1 C1          0.9511   -0.3029    0.4536 CT        1 <0>       -0.10519
      2 C2         -0.0965   -0.0035    2.7071 CT        1 <0>       -0.10519
      3 C3          2.0341   -1.3283    2.5217 CT        1 <0>       -0.10627
      4 C4          1.8930   -2.3915    3.6092 CT        1 <0>        0.12814
      5 C5          0.5994   -3.0562    0.7538 CT        1 <0>        0.32406
      6 C6          0.7167   -0.9506    1.8190 CT        1 <0>        0.15539
      7 O1          3.1634   -2.6400    4.2006 OH        1 <0>       -0.60990
      8 O2          0.0279   -4.3559    0.7940 OH        1 <0>       -0.59118
      9 O3         -0.0614   -2.1299    1.6054 OS        1 <0>       -0.40891
     10 H1          1.5313   -0.9566   -0.2063 HC        1 <0>        0.04610
     11 H2         -0.0011   -0.1288   -0.0613 HC        1 <0>        0.04610
     12 H3          1.4719    0.6556    0.5466 HC        1 <0>        0.04610
     13 H4         -0.2827   -0.4378    3.6949 HC        1 <0>        0.04610
     14 H5          0.4244    0.9518    2.8392 HC        1 <0>        0.04610
     15 H6         -1.0619    0.2337    2.2454 HC        1 <0>        0.04610
     16 H7          2.4681   -0.4341    2.9896 HC        1 <0>        0.05829
     17 H8          2.7740   -1.6646    1.7838 HC        1 <0>        0.05829
     18 H9          1.2164   -2.0600    4.4021 H1        1 <0>        0.03814
     19 H10         1.5186   -3.3372    3.2073 H1        1 <0>        0.03814
     20 H11         1.6722   -3.1073    0.9730 H2        1 <0>        0.02098
     21 H12         0.4867   -2.6842   -0.2687 H2        1 <0>        0.02098
     22 H13         3.0256   -3.3176    4.8814 HO        1 <0>        0.40027
     23 H14         0.5408   -4.9147    0.1860 HO        1 <0>        0.40736
@<TRIPOS>BOND
     1    1    6 1
     2    2    6 1
     3    3    4 1
     4    3    6 1
     5    4    7 1
     6    5    8 1
     7    5    9 1
     8    6    9 1
     9    1   10 1
    10    1   11 1
    11    1   12 1
    12    2   13 1
    13    2   14 1
    14    2   15 1
    15    3   16 1
    16    3   17 1
    17    4   18 1
    18    4   19 1
    19    5   20 1
    20    5   21 1
    21    7   22 1
    22    8   23 1
@<TRIPOS>SUBSTRUCTURE
     1 <0>         1 GROUP 0 A     ****
