@<TRIPOS>MOLECULE
AlkEthOH_c485
   22    21     1     0     0
SMALL
USER_CHARGES

@<TRIPOS>ATOM
      1 C1          1.0495   -0.3816   -0.2534 CT        1 <0>       -0.09113
      2 C2          1.1039    1.1686   -2.2261 CT        1 <0>       -0.09113
      3 C3          3.6761    2.1719    3.2541 CT        1 <0>        0.12961
      4 C4          2.8986    2.6484    2.0423 CT        1 <0>        0.12504
      5 C5          1.9991    1.9493   -0.0132 CT        1 <0>        0.13172
      6 C6          1.8182    0.7470   -0.9439 CT        1 <0>       -0.06705
      7 O1          2.9380    1.1446    3.9046 OH        1 <0>       -0.59573
      8 O2          2.7244    1.5597    1.1457 OS        1 <0>       -0.41914
      9 H1          0.0462   -0.0483    0.0327 HC        1 <0>        0.03664
     10 H2          1.5657   -0.7163    0.6529 HC        1 <0>        0.03664
     11 H3          0.9340   -1.2452   -0.9165 HC        1 <0>        0.03664
     12 H4          0.1076    1.5654   -2.0043 HC        1 <0>        0.03664
     13 H5          0.9803    0.3150   -2.9009 HC        1 <0>        0.03664
     14 H6          1.6660    1.9434   -2.7588 HC        1 <0>        0.03664
     15 H7          3.8300    2.9859    3.9691 H1        1 <0>        0.03433
     16 H8          4.6429    1.7597    2.9508 H1        1 <0>        0.03433
     17 H9          3.4373    3.4417    1.5147 H1        1 <0>        0.03823
     18 H10         1.9096    3.0092    2.3396 H1        1 <0>        0.03823
     19 H11         2.5635    2.7424   -0.5149 H1        1 <0>        0.02512
     20 H12         1.0314    2.3549    0.3013 H1        1 <0>        0.02512
     21 H13         2.8097    0.3560   -1.2057 HC        1 <0>        0.06105
     22 H14         3.4640    0.8659    4.6712 HO        1 <0>        0.40156
@<TRIPOS>BOND
     1    1    6 1
     2    2    6 1
     3    3    4 1
     4    3    7 1
     5    4    8 1
     6    5    6 1
     7    5    8 1
     8    1    9 1
     9    1   10 1
    10    1   11 1
    11    2   12 1
    12    2   13 1
    13    2   14 1
    14    3   15 1
    15    3   16 1
    16    4   17 1
    17    4   18 1
    18    5   19 1
    19    5   20 1
    20    6   21 1
    21    7   22 1
@<TRIPOS>SUBSTRUCTURE
     1 <0>         1 GROUP 0 A     ****
