@<TRIPOS>MOLECULE
AlkEthOH_c1072
   27    26     1     0     0
SMALL
USER_CHARGES

@<TRIPOS>ATOM
      1 C1          1.2076   -3.2396    0.1713 CT        1 <0>       -0.09221
      2 C2          0.0345    0.7589    1.8525 CT        1 <0>       -0.08878
      3 C3         -1.2514    1.0373   -1.8554 CT        1 <0>       -0.12273
      4 C4          0.6724    2.2299   -0.7894 CT        1 <0>       -0.12273
      5 C5          0.3887   -2.1213    0.7994 CT        1 <0>       -0.08043
      6 C6          0.4018   -0.8615   -0.0739 CT        1 <0>       -0.07658
      7 C7         -0.4750    0.2864    0.4794 CT        1 <0>       -0.04821
      8 C8         -0.6346    1.4776   -0.5208 CT        1 <0>        0.15266
      9 O1         -1.5426    2.4317    0.0510 OH        1 <0>       -0.60266
     10 H1          0.8286   -3.4911   -0.8245 HC        1 <0>        0.03257
     11 H2          2.2532   -2.9324    0.0697 HC        1 <0>        0.03257
     12 H3          1.1782   -4.1429    0.7891 HC        1 <0>        0.03257
     13 H4          1.0413    1.1830    1.7864 HC        1 <0>        0.03863
     14 H5         -0.6082    1.5460    2.2594 HC        1 <0>        0.03863
     15 H6          0.0562   -0.0618    2.5766 HC        1 <0>        0.03863
     16 H7         -2.1908    0.4932   -1.7208 HC        1 <0>        0.04207
     17 H8         -1.4379    1.9018   -2.5027 HC        1 <0>        0.04207
     18 H9         -0.5614    0.3858   -2.4048 HC        1 <0>        0.04207
     19 H10         1.1525    2.5658    0.1344 HC        1 <0>        0.04207
     20 H11         0.5103    3.0975   -1.4374 HC        1 <0>        0.04207
     21 H12         1.3827    1.5878   -1.3244 HC        1 <0>        0.04207
     22 H13         0.8025   -1.9048    1.7897 HC        1 <0>        0.04036
     23 H14        -0.6417   -2.4671    0.9406 HC        1 <0>        0.04036
     24 H15         1.4380   -0.5213   -0.1879 HC        1 <0>        0.03984
     25 H16         0.0481   -1.1431   -1.0716 HC        1 <0>        0.03984
     26 H17        -1.4823   -0.1176    0.6567 HC        1 <0>        0.05862
     27 H18        -1.6028    3.1560   -0.5864 HO        1 <0>        0.39663
@<TRIPOS>BOND
     1    1    5 1
     2    2    7 1
     3    3    8 1
     4    4    8 1
     5    5    6 1
     6    6    7 1
     7    7    8 1
     8    8    9 1
     9    1   10 1
    10    1   11 1
    11    1   12 1
    12    2   13 1
    13    2   14 1
    14    2   15 1
    15    3   16 1
    16    3   17 1
    17    3   18 1
    18    4   19 1
    19    4   20 1
    20    4   21 1
    21    5   22 1
    22    5   23 1
    23    6   24 1
    24    6   25 1
    25    7   26 1
    26    9   27 1
@<TRIPOS>SUBSTRUCTURE
     1 <0>         1 GROUP 0 A     ****
