@<TRIPOS>MOLECULE
AlkEthOH_c553
   25    24     1     0     0
SMALL
USER_CHARGES

@<TRIPOS>ATOM
      1 C1         -0.5561    4.0488    3.0279 CT        1 <0>       -0.10633
      2 C2          0.9805    2.4787    4.2630 CT        1 <0>       -0.10633
      3 C3         -0.4238    0.8108    0.6004 CT        1 <0>       -0.12071
      4 C4         -1.1688   -2.0556    4.4598 CT        1 <0>        0.11548
      5 C5         -0.8331   -0.7088    2.5635 CT        1 <0>        0.12628
      6 C6          0.1847    2.7209    2.9895 CT        1 <0>        0.14045
      7 C7         -0.1831    0.5832    2.0850 CT        1 <0>        0.13910
      8 O1         -0.5999   -0.8539    3.9604 OS        1 <0>       -0.41059
      9 O2         -0.7516    1.6685    2.8163 OS        1 <0>       -0.41054
     10 H1         -1.2409    4.0970    3.8801 HC        1 <0>        0.04333
     11 H2          0.1541    4.8793    3.1022 HC        1 <0>        0.04333
     12 H3         -1.1297    4.2073    2.1080 HC        1 <0>        0.04333
     13 H4          0.3324    2.4895    5.1446 HC        1 <0>        0.04333
     14 H5          1.7494    3.2493    4.3843 HC        1 <0>        0.04333
     15 H6          1.5031    1.5165    4.2241 HC        1 <0>        0.04333
     16 H7         -1.4974    0.8254    0.3837 HC        1 <0>        0.04295
     17 H8          0.0100    1.7589    0.2680 HC        1 <0>        0.04295
     18 H9          0.0060   -0.0016    0.0041 HC        1 <0>        0.04295
     19 H10        -0.9716   -2.1350    5.5317 H1        1 <0>        0.03200
     20 H11        -0.7358   -2.9106    3.9345 H1        1 <0>        0.03200
     21 H12        -2.2480   -2.0351    4.2907 H1        1 <0>        0.03200
     22 H13        -1.9163   -0.6903    2.4039 H1        1 <0>        0.03352
     23 H14        -0.4036   -1.5777    2.0553 H1        1 <0>        0.03352
     24 H15         0.8601    2.7041    2.1278 H1        1 <0>        0.03046
     25 H16         0.8907    0.5686    2.3018 H1        1 <0>        0.05086
@<TRIPOS>BOND
     1    1    6 1
     2    2    6 1
     3    3    7 1
     4    4    8 1
     5    5    7 1
     6    5    8 1
     7    6    9 1
     8    7    9 1
     9    1   10 1
    10    1   11 1
    11    1   12 1
    12    2   13 1
    13    2   14 1
    14    2   15 1
    15    3   16 1
    16    3   17 1
    17    3   18 1
    18    4   19 1
    19    4   20 1
    20    4   21 1
    21    5   22 1
    22    5   23 1
    23    6   24 1
    24    7   25 1
@<TRIPOS>SUBSTRUCTURE
     1 <0>         1 GROUP 0 A     ****
