@<TRIPOS>MOLECULE
AlkEthOH_c753
   19    18     1     0     0
SMALL
USER_CHARGES

@<TRIPOS>ATOM
      1 C1          0.3872    0.7577   -0.5495 CT        1 <0>       -0.12994
      2 C2          2.5332   -2.5957   -5.2763 CT        1 <0>        0.11832
      3 C3          1.4087   -0.7635   -2.2846 CT        1 <0>       -0.07661
      4 C4          1.5600   -1.0781   -3.7687 CT        1 <0>        0.13026
      5 C5          0.5699    0.4916   -2.0374 CT        1 <0>        0.14027
      6 O1         -0.7144    0.3479   -2.6377 OH        1 <0>       -0.60389
      7 O2          2.3347   -2.2614   -3.9093 OS        1 <0>       -0.42622
      8 H1         -0.0935   -0.0891   -0.0503 HC        1 <0>        0.04421
      9 H2         -0.2196    1.6542   -0.3814 HC        1 <0>        0.04421
     10 H3          1.3564    0.9402   -0.0731 HC        1 <0>        0.04421
     11 H4          3.1309   -3.5078   -5.3460 H1        1 <0>        0.03132
     12 H5          3.0438   -1.7730   -5.7830 H1        1 <0>        0.03132
     13 H6          1.5610   -2.7630   -5.7460 H1        1 <0>        0.03132
     14 H7          2.4032   -0.6500   -1.8355 HC        1 <0>        0.06100
     15 H8          0.9485   -1.6308   -1.7934 HC        1 <0>        0.06100
     16 H9          0.5865   -1.2453   -4.2398 H1        1 <0>        0.03496
     17 H10         2.0731   -0.2632   -4.2891 H1        1 <0>        0.03496
     18 H11         1.0526    1.3593   -2.5002 H1        1 <0>        0.02972
     19 H12        -1.1857    1.1817   -2.4851 HO        1 <0>        0.39958
@<TRIPOS>BOND
     1    1    5 1
     2    2    7 1
     3    3    4 1
     4    3    5 1
     5    4    7 1
     6    5    6 1
     7    1    8 1
     8    1    9 1
     9    1   10 1
    10    2   11 1
    11    2   12 1
    12    2   13 1
    13    3   14 1
    14    3   15 1
    15    4   16 1
    16    4   17 1
    17    5   18 1
    18    6   19 1
@<TRIPOS>SUBSTRUCTURE
     1 <0>         1 GROUP 0 A     ****
