@<TRIPOS>MOLECULE
AlkEthOH_c770
   16    15     1     0     0
SMALL
USER_CHARGES

@<TRIPOS>ATOM
      1 C1         -1.0347   -0.3388    0.1204 CT        1 <0>       -0.08563
      2 C2         -0.5837   -1.2096    2.4509 CT        1 <0>        0.13298
      3 C3         -1.4344    1.1474    2.1035 CT        1 <0>        0.13298
      4 C4         -1.4636   -0.2946    1.5888 CT        1 <0>       -0.06846
      5 O1         -0.7029   -2.5552    2.0062 OH        1 <0>       -0.59698
      6 O2         -2.3190    1.9541    1.3369 OH        1 <0>       -0.59698
      7 H1         -0.0095    0.0290    0.0050 HC        1 <0>        0.04274
      8 H2         -1.0735   -1.3605   -0.2726 HC        1 <0>        0.04274
      9 H3         -1.6813    0.2887   -0.5012 HC        1 <0>        0.04274
     10 H4         -0.8931   -1.1757    3.5004 H1        1 <0>        0.01995
     11 H5          0.4694   -0.9148    2.3879 H1        1 <0>        0.01995
     12 H6         -1.7391    1.1974    3.1544 H1        1 <0>        0.01995
     13 H7         -0.4279    1.5690    2.0117 H1        1 <0>        0.01995
     14 H8         -2.4932   -0.6718    1.6487 HC        1 <0>        0.07559
     15 H9         -0.1311   -3.0905    2.5796 HO        1 <0>        0.39924
     16 H10        -2.2643    2.8526    1.7003 HO        1 <0>        0.39924
@<TRIPOS>BOND
     1    1    4 1
     2    2    4 1
     3    2    5 1
     4    3    4 1
     5    3    6 1
     6    1    7 1
     7    1    8 1
     8    1    9 1
     9    2   10 1
    10    2   11 1
    11    3   12 1
    12    3   13 1
    13    4   14 1
    14    5   15 1
    15    6   16 1
@<TRIPOS>SUBSTRUCTURE
     1 <0>         1 GROUP 0 A     ****
