@<TRIPOS>MOLECULE
AlkEthOH_c774
   25    24     1     0     0
SMALL
USER_CHARGES

@<TRIPOS>ATOM
      1 C1         -2.4635   -0.7590    3.6088 CT        1 <0>       -0.10266
      2 C2         -0.4645   -0.0646    0.9894 CT        1 <0>       -0.10838
      3 C3          1.6273    0.6910    2.1567 CT        1 <0>       -0.10838
      4 C4          1.2036   -1.7604    1.8118 CT        1 <0>       -0.10838
      5 C5         -0.7921   -2.4581    4.4151 CT        1 <0>        0.11686
      6 C6         -1.1266   -1.4328    3.3392 CT        1 <0>        0.13826
      7 C7          0.5609   -0.3988    2.0719 CT        1 <0>        0.15361
      8 O1         -1.7947   -3.4688    4.4182 OH        1 <0>       -0.60483
      9 O2         -0.1082   -0.4451    3.3327 OS        1 <0>       -0.42379
     10 H1         -2.4613   -0.2838    4.5958 HC        1 <0>        0.04479
     11 H2         -2.6826    0.0049    2.8566 HC        1 <0>        0.04479
     12 H3         -3.2780   -1.4916    3.6147 HC        1 <0>        0.04479
     13 H4         -1.2317   -0.8445    0.9253 HC        1 <0>        0.04341
     14 H5         -0.9578    0.8935    1.1830 HC        1 <0>        0.04341
     15 H6          0.0103   -0.0162    0.0027 HC        1 <0>        0.04341
     16 H7          2.3651    0.4554    2.9322 HC        1 <0>        0.04341
     17 H8          1.1816    1.6524    2.4367 HC        1 <0>        0.04341
     18 H9          2.1531    0.8168    1.2047 HC        1 <0>        0.04341
     19 H10         1.9391   -2.0003    2.5882 HC        1 <0>        0.04341
     20 H11         0.4566   -2.5604    1.7845 HC        1 <0>        0.04341
     21 H12         1.7476   -1.7592    0.8603 HC        1 <0>        0.04341
     22 H13         0.1708   -2.9406    4.2173 H1        1 <0>        0.03186
     23 H14        -0.7724   -1.9962    5.4072 H1        1 <0>        0.03186
     24 H15        -1.1286   -1.9081    2.3521 H1        1 <0>        0.05717
     25 H16        -1.5497   -4.1009    5.1123 HO        1 <0>        0.40174
@<TRIPOS>BOND
     1    1    6 1
     2    2    7 1
     3    3    7 1
     4    4    7 1
     5    5    6 1
     6    5    8 1
     7    6    9 1
     8    7    9 1
     9    1   10 1
    10    1   11 1
    11    1   12 1
    12    2   13 1
    13    2   14 1
    14    2   15 1
    15    3   16 1
    16    3   17 1
    17    3   18 1
    18    4   19 1
    19    4   20 1
    20    4   21 1
    21    5   22 1
    22    5   23 1
    23    6   24 1
    24    8   25 1
@<TRIPOS>SUBSTRUCTURE
     1 <0>         1 GROUP 0 A     ****
