@<TRIPOS>MOLECULE
AlkEthOH_c528
   26    25     1     0     0
SMALL
USER_CHARGES

@<TRIPOS>ATOM
      1 C1          2.3133    0.9514   -2.2509 CT        1 <0>       -0.10605
      2 C2          3.6618    0.1158   -0.2926 CT        1 <0>       -0.10605
      3 C3         -0.4501   -0.9406   -1.1146 CT        1 <0>       -0.14911
      4 C4         -0.6863    0.1610    1.1531 CT        1 <0>       -0.09700
      5 C5         -0.0393    0.6803    2.4341 CT        1 <0>        0.13482
      6 C6          2.3238    0.0656   -1.0145 CT        1 <0>        0.14840
      7 C7          0.2868   -0.4894    0.1511 CT        1 <0>        0.35000
      8 O1         -1.0341    1.2621    3.2690 OH        1 <0>       -0.60916
      9 O2          0.8240   -1.6320    0.8267 OH        1 <0>       -0.62469
     10 O3          1.2981    0.4882   -0.1280 OS        1 <0>       -0.41585
     11 H1          2.5313    1.9928   -1.9953 HC        1 <0>        0.04241
     12 H2          3.0593    0.6050   -2.9742 HC        1 <0>        0.04241
     13 H3          1.3424    0.9107   -2.7571 HC        1 <0>        0.04241
     14 H4          3.9120    1.1373    0.0097 HC        1 <0>        0.04241
     15 H5          4.4592   -0.2625   -0.9412 HC        1 <0>        0.04241
     16 H6          3.6528   -0.5211    0.5988 HC        1 <0>        0.04241
     17 H7          0.2408   -1.4032   -1.8278 HC        1 <0>        0.05148
     18 H8         -1.2582   -1.6422   -0.8855 HC        1 <0>        0.05148
     19 H9         -0.9010   -0.0882   -1.6348 HC        1 <0>        0.05148
     20 H10        -1.4578   -0.5710    1.4316 HC        1 <0>        0.06360
     21 H11        -1.2432    0.9731    0.6661 HC        1 <0>        0.06360
     22 H12         0.7156    1.4440    2.2268 H1        1 <0>        0.03768
     23 H13         0.4338   -0.1296    2.9969 H1        1 <0>        0.03768
     24 H14         2.1028   -0.9672   -1.3030 H1        1 <0>        0.05200
     25 H15        -0.5792    1.5764    4.0664 HO        1 <0>        0.40113
     26 H16         0.0889   -2.2218    1.0633 HO        1 <0>        0.41010
@<TRIPOS>BOND
     1    1    6 1
     2    2    6 1
     3    3    7 1
     4    4    5 1
     5    4    7 1
     6    5    8 1
     7    6   10 1
     8    7    9 1
     9    7   10 1
    10    1   11 1
    11    1   12 1
    12    1   13 1
    13    2   14 1
    14    2   15 1
    15    2   16 1
    16    3   17 1
    17    3   18 1
    18    3   19 1
    19    4   20 1
    20    4   21 1
    21    5   22 1
    22    5   23 1
    23    6   24 1
    24    8   25 1
    25    9   26 1
@<TRIPOS>SUBSTRUCTURE
     1 <0>         1 GROUP 0 A     ****
