@<TRIPOS>MOLECULE
AlkEthOH_c1104
   21    20     1     0     0
SMALL
USER_CHARGES

@<TRIPOS>ATOM
      1 C1          0.9074   -0.3381    0.3511 CT        1 <0>       -0.09182
      2 C2         -0.8002   -1.8023    5.3370 CT        1 <0>       -0.09019
      3 C3          1.2136    0.1404    1.7619 CT        1 <0>       -0.07867
      4 C4         -0.6283   -0.2989    5.1946 CT        1 <0>       -0.11473
      5 C5          0.1532   -0.3405    2.7584 CT        1 <0>       -0.07016
      6 C6          0.4585    0.1093    4.1927 CT        1 <0>        0.14121
      7 O1          0.5622    1.5341    4.2072 OH        1 <0>       -0.60223
      8 H1         -0.0735    0.0178    0.0200 HC        1 <0>        0.03163
      9 H2          1.6609    0.0212   -0.3570 HC        1 <0>        0.03163
     10 H3          0.9014   -1.4320    0.3151 HC        1 <0>        0.03163
     11 H4         -1.0482   -2.2623    4.3753 HC        1 <0>        0.03598
     12 H5          0.1299   -2.2534    5.6977 HC        1 <0>        0.03598
     13 H6         -1.5865   -2.0517    6.0549 HC        1 <0>        0.03598
     14 H7          2.1999   -0.2327    2.0613 HC        1 <0>        0.04748
     15 H8          1.2663    1.2350    1.7608 HC        1 <0>        0.04748
     16 H9         -0.3813    0.1218    6.1778 HC        1 <0>        0.04455
     17 H10        -1.5853    0.1582    4.9135 HC        1 <0>        0.04455
     18 H11        -0.8215    0.0582    2.4499 HC        1 <0>        0.04659
     19 H12         0.0934   -1.4332    2.7108 HC        1 <0>        0.04659
     20 H13         1.4274   -0.2956    4.5080 H1        1 <0>        0.03033
     21 H14         0.8006    1.7811    5.1132 HO        1 <0>        0.39619
@<TRIPOS>BOND
     1    1    3 1
     2    2    4 1
     3    3    5 1
     4    4    6 1
     5    5    6 1
     6    6    7 1
     7    1    8 1
     8    1    9 1
     9    1   10 1
    10    2   11 1
    11    2   12 1
    12    2   13 1
    13    3   14 1
    14    3   15 1
    15    4   16 1
    16    4   17 1
    17    5   18 1
    18    5   19 1
    19    6   20 1
    20    7   21 1
@<TRIPOS>SUBSTRUCTURE
     1 <0>         1 GROUP 0 A     ****
