@<TRIPOS>MOLECULE
AlkEthOH_c937
   25    24     1     0     0
SMALL
USER_CHARGES

@<TRIPOS>ATOM
      1 C1         -1.3373    2.2412   -0.4859 CT        1 <0>       -0.09067
      2 C2         -2.1246   -1.7410    2.2072 CT        1 <0>       -0.13391
      3 C3         -2.1689   -0.4444   -1.7717 CT        1 <0>       -0.10159
      4 C4         -4.0814    0.9472   -0.9518 CT        1 <0>       -0.10159
      5 C5         -1.8896    1.0450    0.2809 CT        1 <0>       -0.10423
      6 C6         -2.1946   -1.7746    0.6880 CT        1 <0>        0.33143
      7 C7         -2.8429    0.1483   -0.5334 CT        1 <0>        0.16387
      8 O1         -2.3436   -3.1193    0.2427 OH        1 <0>       -0.61107
      9 O2         -3.2783   -0.9433    0.2800 OS        1 <0>       -0.46126
     10 H1         -0.8282    1.8994   -1.3931 HC        1 <0>        0.03606
     11 H2         -0.6079    2.7970    0.1102 HC        1 <0>        0.03606
     12 H3         -2.1352    2.9265   -0.7878 HC        1 <0>        0.03606
     13 H4         -3.0491   -2.1262    2.6490 HC        1 <0>        0.04927
     14 H5         -1.3040   -2.3693    2.5716 HC        1 <0>        0.04927
     15 H6         -1.9461   -0.7236    2.5689 HC        1 <0>        0.04927
     16 H7         -1.2780   -1.0231   -1.5075 HC        1 <0>        0.04551
     17 H8         -2.8545   -1.0891   -2.3317 HC        1 <0>        0.04551
     18 H9         -1.8702    0.3487   -2.4675 HC        1 <0>        0.04551
     19 H10        -4.5890    1.3863   -0.0869 HC        1 <0>        0.04551
     20 H11        -3.8108    1.7535   -1.6432 HC        1 <0>        0.04551
     21 H12        -4.7957    0.3107   -1.4865 HC        1 <0>        0.04551
     22 H13        -2.3953    1.4055    1.1851 HC        1 <0>        0.04522
     23 H14        -1.0305    0.4468    0.6116 HC        1 <0>        0.04522
     24 H15        -1.2558   -1.3833    0.2795 H2        1 <0>        0.07586
     25 H16        -3.1651   -3.4758    0.6203 HO        1 <0>        0.41367
@<TRIPOS>BOND
     1    1    5 1
     2    2    6 1
     3    3    7 1
     4    4    7 1
     5    5    7 1
     6    6    8 1
     7    6    9 1
     8    7    9 1
     9    1   10 1
    10    1   11 1
    11    1   12 1
    12    2   13 1
    13    2   14 1
    14    2   15 1
    15    3   16 1
    16    3   17 1
    17    3   18 1
    18    4   19 1
    19    4   20 1
    20    4   21 1
    21    5   22 1
    22    5   23 1
    23    6   24 1
    24    8   25 1
@<TRIPOS>SUBSTRUCTURE
     1 <0>         1 GROUP 0 A     ****
