@<TRIPOS>MOLECULE
AlkEthOH_c1082
   27    26     1     0     0
SMALL
USER_CHARGES

@<TRIPOS>ATOM
      1 C1          0.5058    2.1644   -2.3988 CT        1 <0>       -0.09209
      2 C2         -1.6113   -1.6079   -0.9391 CT        1 <0>       -0.09008
      3 C3          1.8050   -0.6305    2.6257 CT        1 <0>       -0.13119
      4 C4          0.4055    0.8607   -1.6200 CT        1 <0>       -0.08034
      5 C5         -0.8726    0.8153   -0.7780 CT        1 <0>       -0.07347
      6 C6          0.1226   -1.0075    0.7804 CT        1 <0>       -0.06538
      7 C7         -1.1052   -0.5008   -0.0073 CT        1 <0>       -0.06273
      8 C8          0.6650   -0.0192    1.8208 CT        1 <0>        0.13842
      9 O1         -0.3715    0.3677    2.7181 OH        1 <0>       -0.60098
     10 H1          0.4876    3.0175   -1.7133 HC        1 <0>        0.03204
     11 H2          1.4379    2.2088   -2.9713 HC        1 <0>        0.03204
     12 H3         -0.3318    2.2708   -3.0956 HC        1 <0>        0.03204
     13 H4         -0.8574   -1.8603   -1.6920 HC        1 <0>        0.03231
     14 H5         -2.5125   -1.2812   -1.4696 HC        1 <0>        0.03231
     15 H6         -1.8636   -2.5194   -0.3880 HC        1 <0>        0.03231
     16 H7          1.4690   -1.5434    3.1290 HC        1 <0>        0.04196
     17 H8          2.1768    0.0682    3.3811 HC        1 <0>        0.04196
     18 H9          2.6372   -0.9193    1.9744 HC        1 <0>        0.04196
     19 H10         0.4260    0.0265   -2.3290 HC        1 <0>        0.03672
     20 H11         1.2890    0.7685   -0.9798 HC        1 <0>        0.03672
     21 H12        -0.8649    1.6512   -0.0678 HC        1 <0>        0.03973
     22 H13        -1.7358    0.9931   -1.4330 HC        1 <0>        0.03973
     23 H14         0.9257   -1.2882    0.0882 HC        1 <0>        0.04624
     24 H15        -0.1751   -1.9294    1.2988 HC        1 <0>        0.04624
     25 H16        -1.9109   -0.3058    0.7133 HC        1 <0>        0.06384
     26 H17         1.0331    0.8881    1.3323 H1        1 <0>        0.03288
     27 H18         0.0165    1.0161    3.3263 HO        1 <0>        0.39681
@<TRIPOS>BOND
     1    1    4 1
     2    2    7 1
     3    3    8 1
     4    4    5 1
     5    5    7 1
     6    6    7 1
     7    6    8 1
     8    8    9 1
     9    1   10 1
    10    1   11 1
    11    1   12 1
    12    2   13 1
    13    2   14 1
    14    2   15 1
    15    3   16 1
    16    3   17 1
    17    3   18 1
    18    4   19 1
    19    4   20 1
    20    5   21 1
    21    5   22 1
    22    6   23 1
    23    6   24 1
    24    7   25 1
    25    8   26 1
    26    9   27 1
@<TRIPOS>SUBSTRUCTURE
     1 <0>         1 GROUP 0 A     ****
