@<TRIPOS>MOLECULE
AlkEthOH_c1295
   16    15     1     0     0
SMALL
USER_CHARGES

@<TRIPOS>ATOM
      1 C1          1.5602   -3.6153   -0.6028 CT        1 <0>        0.11641
      2 C2          0.7769   -0.0127   -0.7752 CT        1 <0>       -0.08795
      3 C3          0.3977    0.9315   -1.9041 CT        1 <0>        0.13330
      4 C4          0.9970   -1.4335   -1.2704 CT        1 <0>        0.12877
      5 O1          0.2231    2.2373   -1.3719 OH        1 <0>       -0.59781
      6 O2          1.3667   -2.2713   -0.1834 OS        1 <0>       -0.41946
      7 H1          1.8425   -4.2288    0.2562 H1        1 <0>        0.03314
      8 H2          2.3443   -3.6513   -1.3633 H1        1 <0>        0.03314
      9 H3          0.6268   -3.9933   -1.0266 H1        1 <0>        0.03314
     10 H4          1.6790    0.3515   -0.2672 HC        1 <0>        0.06991
     11 H5          0.0000    0.0000    0.0000 HC        1 <0>        0.06991
     12 H6          1.1846    0.9677   -2.6642 H1        1 <0>        0.01961
     13 H7         -0.5395    0.6195   -2.3760 H1        1 <0>        0.01961
     14 H8          1.8020   -1.4678   -2.0110 H1        1 <0>        0.02426
     15 H9          0.0904   -1.8407   -1.7295 H1        1 <0>        0.02426
     16 H10        -0.0175    2.8135   -2.1155 HO        1 <0>        0.39976
@<TRIPOS>BOND
     1    1    6 1
     2    2    3 1
     3    2    4 1
     4    3    5 1
     5    4    6 1
     6    1    7 1
     7    1    8 1
     8    1    9 1
     9    2   10 1
    10    2   11 1
    11    3   12 1
    12    3   13 1
    13    4   14 1
    14    4   15 1
    15    5   16 1
@<TRIPOS>SUBSTRUCTURE
     1 <0>         1 GROUP 0 A     ****
