@<TRIPOS>MOLECULE
AlkEthOH_c992
   22    21     1     0     0
SMALL
USER_CHARGES

@<TRIPOS>ATOM
      1 C1          1.1038   -1.7157   -1.0687 CT        1 <0>       -0.08951
      2 C2         -1.4811   -2.4721   -5.8259 CT        1 <0>       -0.13182
      3 C3          0.8854   -0.4120   -1.8257 CT        1 <0>       -0.11434
      4 C4         -0.2807   -1.4668   -3.8475 CT        1 <0>       -0.06561
      5 C5         -0.3258   -1.5860   -5.3776 CT        1 <0>        0.13949
      6 C6          0.8570   -0.5605   -3.3534 CT        1 <0>        0.14476
      7 O1          0.8952   -2.1584   -5.8377 OH        1 <0>       -0.60668
      8 O2          0.7222    0.7229   -3.9597 OH        1 <0>       -0.60713
      9 H1          2.0500   -2.1880   -1.3499 HC        1 <0>        0.03570
     10 H2          0.2969   -2.4194   -1.2974 HC        1 <0>        0.03570
     11 H3          1.1036   -1.5550    0.0132 HC        1 <0>        0.03570
     12 H4         -1.3949   -3.4687   -5.3795 HC        1 <0>        0.04168
     13 H5         -2.4415   -2.0618   -5.4948 HC        1 <0>        0.04168
     14 H6         -1.5007   -2.5803   -6.9144 HC        1 <0>        0.04168
     15 H7         -0.0749    0.0048   -1.4973 HC        1 <0>        0.04270
     16 H8          1.6624    0.3062   -1.5393 HC        1 <0>        0.04270
     17 H9         -0.1498   -2.4643   -3.4100 HC        1 <0>        0.05558
     18 H10        -1.2446   -1.0687   -3.5092 HC        1 <0>        0.05558
     19 H11        -0.4285   -0.5950   -5.8331 H1        1 <0>        0.05324
     20 H12         1.8202   -0.9739   -3.6742 H1        1 <0>        0.05271
     21 H13         0.8359   -2.1959   -6.8050 HO        1 <0>        0.39810
     22 H14         1.4908    1.2427   -3.6785 HO        1 <0>        0.39809
@<TRIPOS>BOND
     1    1    3 1
     2    2    5 1
     3    3    6 1
     4    4    5 1
     5    4    6 1
     6    5    7 1
     7    6    8 1
     8    1    9 1
     9    1   10 1
    10    1   11 1
    11    2   12 1
    12    2   13 1
    13    2   14 1
    14    3   15 1
    15    3   16 1
    16    4   17 1
    17    4   18 1
    18    5   19 1
    19    6   20 1
    20    7   21 1
    21    8   22 1
@<TRIPOS>SUBSTRUCTURE
     1 <0>         1 GROUP 0 A     ****
