@<TRIPOS>MOLECULE
AlkEthOH_c826
   29    28     1     0     0
SMALL
USER_CHARGES

@<TRIPOS>ATOM
      1 C1         -1.9739    0.7516   -4.7695 CT        1 <0>       -0.12768
      2 C2         -1.7562   -2.1655    0.6235 CT        1 <0>       -0.12187
      3 C3         -0.5833   -2.8973   -1.4641 CT        1 <0>       -0.12187
      4 C4         -3.4862   -1.7616   -1.9060 CT        1 <0>       -0.11850
      5 C5         -2.6891    0.4050   -0.9365 CT        1 <0>       -0.11850
      6 C6         -2.5949   -0.2734   -3.8326 CT        1 <0>        0.33200
      7 C7         -1.1921   -1.6962   -0.7274 CT        1 <0>        0.16530
      8 C8         -2.2445   -0.9158   -1.5800 CT        1 <0>        0.17590
      9 O1         -3.0059   -1.4173   -4.5751 OH        1 <0>       -0.62014
     10 O2         -0.1155   -0.7914   -0.4312 OH        1 <0>       -0.59479
     11 O3         -1.6290   -0.5880   -2.8368 OS        1 <0>       -0.39328
     12 H1         -1.0814    0.3454   -5.2559 HC        1 <0>        0.05193
     13 H2         -2.6780    1.0292   -5.5620 HC        1 <0>        0.05193
     14 H3         -1.7086    1.6659   -4.2296 HC        1 <0>        0.05193
     15 H4         -2.2011   -1.3345    1.1816 HC        1 <0>        0.04590
     16 H5         -2.5075   -2.9518    0.5057 HC        1 <0>        0.04590
     17 H6         -0.9561   -2.5601    1.2616 HC        1 <0>        0.04590
     18 H7         -0.1658   -2.6175   -2.4355 HC        1 <0>        0.04590
     19 H8          0.1983   -3.3796   -0.8685 HC        1 <0>        0.04590
     20 H9         -1.3425   -3.6696   -1.6371 HC        1 <0>        0.04590
     21 H10        -3.2238   -2.7175   -2.3685 HC        1 <0>        0.04712
     22 H11        -4.0588   -1.9764   -0.9957 HC        1 <0>        0.04712
     23 H12        -4.1719   -1.2255   -2.5710 HC        1 <0>        0.04712
     24 H13        -1.8323    1.0391   -0.6879 HC        1 <0>        0.04712
     25 H14        -3.2971    0.9905   -1.6368 HC        1 <0>        0.04712
     26 H15        -3.2842    0.2444   -0.0330 HC        1 <0>        0.04712
     27 H16        -3.4834    0.1648   -3.3638 H2        1 <0>        0.02833
     28 H17        -3.6598   -1.1329   -5.2354 HO        1 <0>        0.40260
     29 H18         0.5260   -1.3023    0.0799 HO        1 <0>        0.39859
@<TRIPOS>BOND
     1    1    6 1
     2    2    7 1
     3    3    7 1
     4    4    8 1
     5    5    8 1
     6    6    9 1
     7    6   11 1
     8    7    8 1
     9    7   10 1
    10    8   11 1
    11    1   12 1
    12    1   13 1
    13    1   14 1
    14    2   15 1
    15    2   16 1
    16    2   17 1
    17    3   18 1
    18    3   19 1
    19    3   20 1
    20    4   21 1
    21    4   22 1
    22    4   23 1
    23    5   24 1
    24    5   25 1
    25    5   26 1
    26    6   27 1
    27    9   28 1
    28   10   29 1
@<TRIPOS>SUBSTRUCTURE
     1 <0>         1 GROUP 0 A     ****
