@<TRIPOS>MOLECULE
AlkEthOH_c634
   26    25     1     0     0
SMALL
USER_CHARGES

@<TRIPOS>ATOM
      1 C1          1.8449    1.3095   -0.6476 CT        1 <0>       -0.13367
      2 C2          3.3099   -1.4008   -3.7175 CT        1 <0>       -0.10293
      3 C3          3.9924   -2.7060   -1.6948 CT        1 <0>       -0.10293
      4 C4          2.0673   -1.0299   -1.5592 CT        1 <0>       -0.10222
      5 C5          1.4033   -3.8066   -1.6731 CT        1 <0>        0.32600
      6 C6          2.6796    0.3802   -1.5208 CT        1 <0>        0.14452
      7 C7          2.8129   -2.0681   -2.4299 CT        1 <0>        0.16536
      8 O1          0.2749   -4.6127   -1.9803 OH        1 <0>       -0.58295
      9 O2          3.9933    0.3480   -0.9741 OH        1 <0>       -0.60335
     10 O3          1.9228   -3.1204   -2.8044 OS        1 <0>       -0.42369
     11 H1          1.7551    0.9241    0.3725 HC        1 <0>        0.04331
     12 H2          2.2848    2.3122   -0.6079 HC        1 <0>        0.04331
     13 H3          0.8391    1.4247   -1.0662 HC        1 <0>        0.04331
     14 H4          2.4899   -0.9323   -4.2714 HC        1 <0>        0.04823
     15 H5          3.7980   -2.1310   -4.3732 HC        1 <0>        0.04823
     16 H6          4.0623   -0.6352   -3.4959 HC        1 <0>        0.04823
     17 H7          3.6568   -3.1892   -0.7696 HC        1 <0>        0.04823
     18 H8          4.4933   -3.4580   -2.3127 HC        1 <0>        0.04823
     19 H9          4.7275   -1.9547   -1.3873 HC        1 <0>        0.04823
     20 H10         2.0438   -1.4103   -0.5285 HC        1 <0>        0.05606
     21 H11         1.0276   -0.9555   -1.9033 HC        1 <0>        0.05606
     22 H12         1.1625   -3.1125   -0.8595 H2        1 <0>        0.02150
     23 H13         2.1919   -4.4754   -1.3166 H2        1 <0>        0.02150
     24 H14         2.7375    0.8105   -2.5256 H1        1 <0>        0.03897
     25 H15        -0.0081   -5.0386   -1.1536 HO        1 <0>        0.40283
     26 H16         4.3263    1.2590   -0.9967 HO        1 <0>        0.39963
@<TRIPOS>BOND
     1    1    6 1
     2    2    7 1
     3    3    7 1
     4    4    6 1
     5    4    7 1
     6    5    8 1
     7    5   10 1
     8    6    9 1
     9    7   10 1
    10    1   11 1
    11    1   12 1
    12    1   13 1
    13    2   14 1
    14    2   15 1
    15    2   16 1
    16    3   17 1
    17    3   18 1
    18    3   19 1
    19    4   20 1
    20    4   21 1
    21    5   22 1
    22    5   23 1
    23    6   24 1
    24    8   25 1
    25    9   26 1
@<TRIPOS>SUBSTRUCTURE
     1 <0>         1 GROUP 0 A     ****
