@<TRIPOS>MOLECULE
AlkEthOH_c372
   38    37     1     0     0
SMALL
USER_CHARGES

@<TRIPOS>ATOM
      1 C1          0.3584    0.1273    3.3751 CT        1 <0>       -0.09140
      2 C2          1.5316    2.1269    2.4624 CT        1 <0>       -0.09140
      3 C3         -0.2783    0.1061   -3.5843 CT        1 <0>       -0.08814
      4 C4         -1.1415    1.1303   -1.4891 CT        1 <0>       -0.08814
      5 C5         -2.1497   -0.9770   -2.3213 CT        1 <0>       -0.08814
      6 C6         -1.2179   -1.3653    0.8145 CT        1 <0>       -0.08938
      7 C7          1.1970   -1.9681    0.7836 CT        1 <0>       -0.08938
      8 C8          0.5554    0.4926    0.8287 CT        1 <0>       -0.06813
      9 C9          0.2031   -0.9653   -1.2698 CT        1 <0>       -0.06205
     10 C10         1.2145    0.6435    2.2211 CT        1 <0>       -0.06434
     11 C11        -0.8177   -0.2154   -2.1863 CT        1 <0>       -0.04805
     12 C12         0.1658   -0.9163    0.3030 CT        1 <0>       -0.03763
     13 H1         -0.6118    0.6360    3.4009 HC        1 <0>        0.03259
     14 H2          0.1709   -0.9476    3.2856 HC        1 <0>        0.03259
     15 H3          0.8326    0.3219    4.3392 HC        1 <0>        0.03259
     16 H4          0.6190    2.7327    2.4661 HC        1 <0>        0.03259
     17 H5          2.0359    2.2668    3.4247 HC        1 <0>        0.03259
     18 H6          2.1952    2.5166    1.6831 HC        1 <0>        0.03259
     19 H7         -0.0296   -0.8120   -4.1304 HC        1 <0>        0.03366
     20 H8         -1.0179    0.6489   -4.1823 HC        1 <0>        0.03366
     21 H9          0.6401    0.6975   -3.5385 HC        1 <0>        0.03366
     22 H10        -1.5344    0.9737   -0.4778 HC        1 <0>        0.03366
     23 H11        -0.2460    1.7566   -1.4035 HC        1 <0>        0.03366
     24 H12        -1.8947    1.6960   -2.0495 HC        1 <0>        0.03366
     25 H13        -2.5844   -1.2347   -1.3534 HC        1 <0>        0.03366
     26 H14        -2.8874   -0.3924   -2.8818 HC        1 <0>        0.03366
     27 H15        -2.0076   -1.9237   -2.8566 HC        1 <0>        0.03366
     28 H16        -2.0112   -0.6738    0.5179 HC        1 <0>        0.03436
     29 H17        -1.2449   -1.4007    1.9095 HC        1 <0>        0.03436
     30 H18        -1.4997   -2.3514    0.4379 HC        1 <0>        0.03436
     31 H19         2.2090   -1.7089    0.4525 HC        1 <0>        0.03436
     32 H20         0.9607   -2.9621    0.3859 HC        1 <0>        0.03436
     33 H21         1.2143   -2.0581    1.8746 HC        1 <0>        0.03436
     34 H22        -0.3325    1.1357    0.8090 HC        1 <0>        0.04006
     35 H23         1.2653    0.9204    0.1075 HC        1 <0>        0.04006
     36 H24         1.2061   -0.6377   -1.5837 HC        1 <0>        0.03705
     37 H25         0.1658   -2.0302   -1.5465 HC        1 <0>        0.03705
     38 H26         2.1722    0.1105    2.2319 HC        1 <0>        0.04732
@<TRIPOS>BOND
     1    1   10 1
     2    2   10 1
     3    3   11 1
     4    4   11 1
     5    5   11 1
     6    6   12 1
     7    7   12 1
     8    8   10 1
     9    8   12 1
    10    9   11 1
    11    9   12 1
    12    1   13 1
    13    1   14 1
    14    1   15 1
    15    2   16 1
    16    2   17 1
    17    2   18 1
    18    3   19 1
    19    3   20 1
    20    3   21 1
    21    4   22 1
    22    4   23 1
    23    4   24 1
    24    5   25 1
    25    5   26 1
    26    5   27 1
    27    6   28 1
    28    6   29 1
    29    6   30 1
    30    7   31 1
    31    7   32 1
    32    7   33 1
    33    8   34 1
    34    8   35 1
    35    9   36 1
    36    9   37 1
    37   10   38 1
@<TRIPOS>SUBSTRUCTURE
     1 <0>         1 GROUP 0 A     ****
