@<TRIPOS>MOLECULE
AlkEthOH_c655
   23    22     1     0     0
SMALL
USER_CHARGES

@<TRIPOS>ATOM
      1 C1          0.3227   -2.6761    1.5492 CT        1 <0>       -0.12970
      2 C2         -1.5188    1.6972   -0.0951 CT        1 <0>       -0.12613
      3 C3          1.3266    1.9943   -1.3820 CT        1 <0>        0.13552
      4 C4         -0.5131   -0.4640    0.6697 CT        1 <0>       -0.09788
      5 C5          0.5128   -1.5972    0.4891 CT        1 <0>        0.14183
      6 C6         -0.4228    0.6641   -0.3872 CT        1 <0>        0.35564
      7 O1          0.3523   -2.1924   -0.7943 OH        1 <0>       -0.61936
      8 O2         -0.6497    0.0801   -1.6704 OH        1 <0>       -0.62660
      9 O3          0.8865    1.2362   -0.2650 OS        1 <0>       -0.44675
     10 H1         -0.6921   -3.0856    1.5016 HC        1 <0>        0.04331
     11 H2          0.4478   -2.2624    2.5559 HC        1 <0>        0.04331
     12 H3          1.0342   -3.4964    1.4146 HC        1 <0>        0.04331
     13 H4         -1.4961    2.5189   -0.8189 HC        1 <0>        0.04832
     14 H5         -2.5148    1.2473   -0.1737 HC        1 <0>        0.04832
     15 H6         -1.3981    2.1338    0.9018 HC        1 <0>        0.04832
     16 H7          2.3291    2.3830   -1.1873 H1        1 <0>        0.03548
     17 H8          0.6324    2.8195   -1.5597 H1        1 <0>        0.03548
     18 H9          1.3536    1.3475   -2.2621 H1        1 <0>        0.03548
     19 H10        -0.3674   -0.0273    1.6663 HC        1 <0>        0.06434
     20 H11        -1.5205   -0.8999    0.6311 HC        1 <0>        0.06434
     21 H12         1.5325   -1.2028    0.5552 H1        1 <0>        0.05897
     22 H13         1.0306   -2.8822   -0.8672 HO        1 <0>        0.40814
     23 H14        -1.5200   -0.3521   -1.6614 HO        1 <0>        0.43631
@<TRIPOS>BOND
     1    1    5 1
     2    2    6 1
     3    3    9 1
     4    4    5 1
     5    4    6 1
     6    5    7 1
     7    6    8 1
     8    6    9 1
     9    1   10 1
    10    1   11 1
    11    1   12 1
    12    2   13 1
    13    2   14 1
    14    2   15 1
    15    3   16 1
    16    3   17 1
    17    3   18 1
    18    4   19 1
    19    4   20 1
    20    5   21 1
    21    7   22 1
    22    8   23 1
@<TRIPOS>SUBSTRUCTURE
     1 <0>         1 GROUP 0 A     ****
