@<TRIPOS>MOLECULE
AlkEthOH_c723
   23    22     1     0     0
SMALL
USER_CHARGES

@<TRIPOS>ATOM
      1 C1         -0.3024    0.6435    0.8340 CT        1 <0>       -0.12539
      2 C2          1.7562   -0.1177    2.1113 CT        1 <0>       -0.09321
      3 C3         -0.2315    1.0173    3.3149 CT        1 <0>       -0.09321
      4 C4          2.5920    1.1378    1.8956 CT        1 <0>        0.13425
      5 C5          0.1529    0.5313    4.7102 CT        1 <0>        0.13425
      6 C6          0.2310    0.1004    2.1659 CT        1 <0>        0.15706
      7 O1          3.9643    0.7649    1.8439 OH        1 <0>       -0.60565
      8 O2         -0.3511    1.4549    5.6678 OH        1 <0>       -0.60565
      9 O3         -0.3784   -1.1821    2.3716 OH        1 <0>       -0.60013
     10 H1         -1.3845    0.8033    0.8583 HC        1 <0>        0.04482
     11 H2          0.1828    1.5917    0.5758 HC        1 <0>        0.04482
     12 H3         -0.0772   -0.0491    0.0147 HC        1 <0>        0.04482
     13 H4          1.9924   -0.8409    1.3175 HC        1 <0>        0.06104
     14 H5          2.0956   -0.6286    3.0224 HC        1 <0>        0.06104
     15 H6          0.1436    2.0385    3.1729 HC        1 <0>        0.06104
     16 H7         -1.3269    1.1043    3.2887 HC        1 <0>        0.06104
     17 H8          2.3384    1.6293    0.9523 H1        1 <0>        0.02962
     18 H9          2.4658    1.8487    2.7166 H1        1 <0>        0.02962
     19 H10        -0.2787   -0.4518    4.9209 H1        1 <0>        0.02962
     20 H11         1.2386    0.4796    4.8305 H1        1 <0>        0.02962
     21 H12         4.4697    1.5817    1.7063 HO        1 <0>        0.40017
     22 H13        -0.0918    1.1202    6.5410 HO        1 <0>        0.40017
     23 H14        -0.1104   -1.7283    1.6198 HO        1 <0>        0.40024
@<TRIPOS>BOND
     1    1    6 1
     2    2    4 1
     3    2    6 1
     4    3    5 1
     5    3    6 1
     6    4    7 1
     7    5    8 1
     8    6    9 1
     9    1   10 1
    10    1   11 1
    11    1   12 1
    12    2   13 1
    13    2   14 1
    14    3   15 1
    15    3   16 1
    16    4   17 1
    17    4   18 1
    18    5   19 1
    19    5   20 1
    20    7   21 1
    21    8   22 1
    22    9   23 1
@<TRIPOS>SUBSTRUCTURE
     1 <0>         1 GROUP 0 A     ****
