@<TRIPOS>MOLECULE
AlkEthOH_c557
   29    28     1     0     0
SMALL
USER_CHARGES

@<TRIPOS>ATOM
      1 C1          1.0284   -3.0418   -1.3877 CT        1 <0>       -0.10724
      2 C2          2.5937   -2.9256    0.5841 CT        1 <0>       -0.10724
      3 C3          1.6701    1.2734   -1.3593 CT        1 <0>       -0.10246
      4 C4         -1.8896   -0.2903    0.4375 CT        1 <0>       -0.13210
      5 C5         -1.0413    1.5699    1.8651 CT        1 <0>       -0.13210
      6 C6          1.5084   -2.2115   -0.2070 CT        1 <0>        0.14163
      7 C7          0.9983    0.0341   -0.7810 CT        1 <0>        0.35646
      8 C8         -0.8792    0.8560    0.5227 CT        1 <0>        0.35676
      9 O1         -1.1454    1.8308   -0.4845 OH        1 <0>       -0.63003
     10 O2          2.0148   -0.9719   -0.6822 OS        1 <0>       -0.41924
     11 O3          0.4697    0.3719    0.5022 OS        1 <0>       -0.44812
     12 H1          1.8528   -3.2809   -2.0663 HC        1 <0>        0.04171
     13 H2          0.5800   -3.9779   -1.0380 HC        1 <0>        0.04171
     14 H3          0.2521   -2.5132   -1.9519 HC        1 <0>        0.04171
     15 H4          3.4554   -3.1621   -0.0475 HC        1 <0>        0.04171
     16 H5          2.2051   -3.8573    1.0091 HC        1 <0>        0.04171
     17 H6          2.9344   -2.3138    1.4267 HC        1 <0>        0.04171
     18 H7          2.4492    1.6405   -0.6813 HC        1 <0>        0.05508
     19 H8          0.9550    2.0882   -1.5041 HC        1 <0>        0.05508
     20 H9          2.1508    1.0459   -2.3161 HC        1 <0>        0.05508
     21 H10        -1.8074   -0.8299   -0.5114 HC        1 <0>        0.05126
     22 H11        -1.7316   -1.0189    1.2393 HC        1 <0>        0.05126
     23 H12        -2.9171    0.0859    0.4918 HC        1 <0>        0.05126
     24 H13        -0.3337    2.4000    1.9661 HC        1 <0>        0.05126
     25 H14        -0.8454    0.8770    2.6922 HC        1 <0>        0.05126
     26 H15        -2.0606    1.9488    1.9964 HC        1 <0>        0.05126
     27 H16         0.6624   -1.9894    0.4515 H1        1 <0>        0.04686
     28 H17         0.2256   -0.3112   -1.4771 H2        1 <0>        0.04015
     29 H18        -2.0428    2.1763   -0.3446 HO        1 <0>        0.41361
@<TRIPOS>BOND
     1    1    6 1
     2    2    6 1
     3    3    7 1
     4    4    8 1
     5    5    8 1
     6    6   10 1
     7    7   10 1
     8    7   11 1
     9    8    9 1
    10    8   11 1
    11    1   12 1
    12    1   13 1
    13    1   14 1
    14    2   15 1
    15    2   16 1
    16    2   17 1
    17    3   18 1
    18    3   19 1
    19    3   20 1
    20    4   21 1
    21    4   22 1
    22    4   23 1
    23    5   24 1
    24    5   25 1
    25    5   26 1
    26    6   27 1
    27    7   28 1
    28    9   29 1
@<TRIPOS>SUBSTRUCTURE
     1 <0>         1 GROUP 0 A     ****
