@<TRIPOS>MOLECULE
AlkEthOH_c1281
   19    18     1     0     0
SMALL
USER_CHARGES

@<TRIPOS>ATOM
      1 C1         -5.6567    0.8147    0.2998 CT        1 <0>       -0.09640
      2 C2          0.3459    2.4470    0.4734 CT        1 <0>        0.11438
      3 C3         -4.4874   -0.0068   -0.1997 CT        1 <0>        0.12843
      4 C4         -0.8936    0.4506    0.4416 CT        1 <0>        0.12587
      5 C5         -2.1461   -0.1936   -0.1209 CT        1 <0>        0.13005
      6 O1         -0.8015    1.7855   -0.0410 OS        1 <0>       -0.40615
      7 O2         -3.2827    0.5410    0.3172 OS        1 <0>       -0.40907
      8 H1         -5.7066    0.7987    1.3921 HC        1 <0>        0.04504
      9 H2         -5.5696    1.8536   -0.0350 HC        1 <0>        0.04504
     10 H3         -6.5992    0.4287   -0.1026 HC        1 <0>        0.04504
     11 H4          0.3849    3.4669    0.0832 H1        1 <0>        0.03229
     12 H5          1.2451    1.8990    0.1809 H1        1 <0>        0.03229
     13 H6          0.2792    2.4786    1.5634 H1        1 <0>        0.03229
     14 H7         -4.4432    0.0134   -1.2927 H1        1 <0>        0.02276
     15 H8         -4.5756   -1.0442    0.1364 H1        1 <0>        0.02276
     16 H9          0.0040   -0.0891    0.1246 H1        1 <0>        0.03380
     17 H10        -0.9377    0.4835    1.5341 H1        1 <0>        0.03380
     18 H11        -2.2509   -1.2251    0.2298 H1        1 <0>        0.03389
     19 H12        -2.1275   -0.1762   -1.2145 H1        1 <0>        0.03389
@<TRIPOS>BOND
     1    1    3 1
     2    2    6 1
     3    3    7 1
     4    4    5 1
     5    4    6 1
     6    5    7 1
     7    1    8 1
     8    1    9 1
     9    1   10 1
    10    2   11 1
    11    2   12 1
    12    2   13 1
    13    3   14 1
    14    3   15 1
    15    4   16 1
    16    4   17 1
    17    5   18 1
    18    5   19 1
@<TRIPOS>SUBSTRUCTURE
     1 <0>         1 GROUP 0 A     ****
