@<TRIPOS>MOLECULE
AlkEthOH_c192
   28    27     1     0     0
SMALL
USER_CHARGES

@<TRIPOS>ATOM
      1 C1         -0.6875    0.3088   -2.0770 CT        1 <0>       -0.08724
      2 C2          1.4282    1.4681   -1.5024 CT        1 <0>       -0.08724
      3 C3         -1.4294   -1.7361    0.6055 CT        1 <0>       -0.12461
      4 C4          0.7117   -2.1029    1.8251 CT        1 <0>       -0.12461
      5 C5          0.7090   -0.4342   -0.0510 CT        1 <0>       -0.05944
      6 C6         -0.6021    1.8112   -0.0683 CT        1 <0>        0.14146
      7 C7          0.1826    0.7730   -0.8934 CT        1 <0>       -0.04118
      8 C8         -0.1442   -1.0649    1.0805 CT        1 <0>        0.15319
      9 O1         -0.9641    2.9288   -0.8689 OH        1 <0>       -0.61189
     10 O2         -0.5122   -0.0706    2.0376 OH        1 <0>       -0.60289
     11 H1         -1.5986   -0.1980   -1.7543 HC        1 <0>        0.03774
     12 H2         -1.0086    1.1631   -2.6852 HC        1 <0>        0.03774
     13 H3         -0.1351   -0.3715   -2.7346 HC        1 <0>        0.03774
     14 H4          2.1013    1.8290   -0.7160 HC        1 <0>        0.03774
     15 H5          1.9978    0.7784   -2.1360 HC        1 <0>        0.03774
     16 H6          1.1499    2.3290   -2.1206 HC        1 <0>        0.03774
     17 H7         -2.0773   -1.0377    0.0671 HC        1 <0>        0.04285
     18 H8         -1.2042   -2.5736   -0.0662 HC        1 <0>        0.04285
     19 H9         -1.9808   -2.1816    1.4383 HC        1 <0>        0.04285
     20 H10         1.6467   -1.6560    2.1827 HC        1 <0>        0.04285
     21 H11         0.9584   -2.9563    1.1849 HC        1 <0>        0.04285
     22 H12         0.1913   -2.4747    2.7154 HC        1 <0>        0.04285
     23 H13         0.9891   -1.2331   -0.7526 HC        1 <0>        0.04808
     24 H14         1.6512   -0.1102    0.4158 HC        1 <0>        0.04808
     25 H15        -0.0180    2.1684    0.7853 H1        1 <0>        0.03583
     26 H16        -1.5243    1.3704    0.3281 H1        1 <0>        0.03583
     27 H17        -1.4516    3.5395   -0.2929 HO        1 <0>        0.39641
     28 H18        -0.9642   -0.5374    2.7563 HO        1 <0>        0.39668
@<TRIPOS>BOND
     1    1    7 1
     2    2    7 1
     3    3    8 1
     4    4    8 1
     5    5    7 1
     6    5    8 1
     7    6    7 1
     8    6    9 1
     9    8   10 1
    10    1   11 1
    11    1   12 1
    12    1   13 1
    13    2   14 1
    14    2   15 1
    15    2   16 1
    16    3   17 1
    17    3   18 1
    18    3   19 1
    19    4   20 1
    20    4   21 1
    21    4   22 1
    22    5   23 1
    23    5   24 1
    24    6   25 1
    25    6   26 1
    26    9   27 1
    27   10   28 1
@<TRIPOS>SUBSTRUCTURE
     1 <0>         1 GROUP 0 A     ****
