@<TRIPOS>MOLECULE
AlkEthOH_c90
   20    19     1     0     0
SMALL
USER_CHARGES

@<TRIPOS>ATOM
      1 C1          1.3625   -1.8566   -0.1241 CT        1 <0>       -0.12677
      2 C2         -0.3232    1.5194    0.8907 CT        1 <0>       -0.14160
      3 C3         -1.8863    0.1745   -1.4750 CT        1 <0>        0.12869
      4 C4          1.1894   -0.4579    0.4667 CT        1 <0>        0.13221
      5 C5         -0.2395    0.1095    0.2893 CT        1 <0>        0.34889
      6 O1          2.1327    0.4134   -0.1551 OH        1 <0>       -0.59161
      7 O2         -1.1181   -0.7681    0.9999 OH        1 <0>       -0.62348
      8 O3         -0.5124    0.1222   -1.1202 OS        1 <0>       -0.40684
      9 H1          1.1293   -1.8459   -1.1946 HC        1 <0>        0.05238
     10 H2          2.3854   -2.2242   -0.0008 HC        1 <0>        0.05238
     11 H3          0.6711   -2.5716    0.3343 HC        1 <0>        0.05238
     12 H4         -1.3247    1.9475    0.7800 HC        1 <0>        0.05543
     13 H5          0.4093    2.1881    0.4255 HC        1 <0>        0.05543
     14 H6         -0.0901    1.5090    1.9612 HC        1 <0>        0.05543
     15 H7         -1.9824    0.1800   -2.5635 H1        1 <0>        0.03742
     16 H8         -2.3382    1.0763   -1.0541 H1        1 <0>        0.03742
     17 H9         -2.3914   -0.7062   -1.0714 H1        1 <0>        0.03742
     18 H10         1.4302   -0.5049    1.5361 H1        1 <0>        0.02751
     19 H11         3.0107    0.0522    0.0405 HO        1 <0>        0.40548
     20 H12        -0.8436   -0.7885    1.9319 HO        1 <0>        0.41183
@<TRIPOS>BOND
     1    1    4 1
     2    2    5 1
     3    3    8 1
     4    4    5 1
     5    4    6 1
     6    5    7 1
     7    5    8 1
     8    1    9 1
     9    1   10 1
    10    1   11 1
    11    2   12 1
    12    2   13 1
    13    2   14 1
    14    3   15 1
    15    3   16 1
    16    3   17 1
    17    4   18 1
    18    6   19 1
    19    7   20 1
@<TRIPOS>SUBSTRUCTURE
     1 <0>         1 GROUP 0 A     ****
