@<TRIPOS>MOLECULE
AlkEthOH_c249
   21    20     1     0     0
SMALL
USER_CHARGES

@<TRIPOS>ATOM
      1 C1         -0.7642    2.0776    1.1676 CT        1 <0>       -0.13021
      2 C2         -1.5597   -0.2842    1.2748 CT        1 <0>       -0.13021
      3 C3          0.8886   -0.7118   -2.2579 CT        1 <0>        0.10723
      4 C4          0.4979   -0.8125   -0.7884 CT        1 <0>        0.33987
      5 C5         -0.3567    0.6139    0.9821 CT        1 <0>        0.35325
      6 O1         -0.2461   -0.3321   -3.0244 OH        1 <0>       -0.59686
      7 O2          1.6509   -1.2445   -0.0699 OH        1 <0>       -0.62695
      8 O3          0.6710    0.3028    1.9217 OH        1 <0>       -0.62391
      9 O4          0.0670    0.4844   -0.3810 OS        1 <0>       -0.44287
     10 H1          0.0848    2.7405    0.9625 HC        1 <0>        0.05466
     11 H2         -1.5644    2.3593    0.4746 HC        1 <0>        0.05466
     12 H3         -1.0895    2.2765    2.1943 HC        1 <0>        0.05466
     13 H4         -1.3073   -1.3427    1.1525 HC        1 <0>        0.05466
     14 H5         -1.8923   -0.1708    2.3127 HC        1 <0>        0.05466
     15 H6         -2.3960   -0.0618    0.6039 HC        1 <0>        0.05466
     16 H7          1.2537   -1.6742   -2.6330 H1        1 <0>        0.04452
     17 H8          1.6764    0.0354   -2.4010 H1        1 <0>        0.04452
     18 H9         -0.2897   -1.5645   -0.6771 H2        1 <0>        0.08127
     19 H10         0.0450   -0.2797   -3.9492 HO        1 <0>        0.40507
     20 H11         2.3421   -0.5758   -0.2122 HO        1 <0>        0.43454
     21 H12         0.3208    0.4462    2.8169 HO        1 <0>        0.41278
@<TRIPOS>BOND
     1    1    5 1
     2    2    5 1
     3    3    4 1
     4    3    6 1
     5    4    7 1
     6    4    9 1
     7    5    8 1
     8    5    9 1
     9    1   10 1
    10    1   11 1
    11    1   12 1
    12    2   13 1
    13    2   14 1
    14    2   15 1
    15    3   16 1
    16    3   17 1
    17    4   18 1
    18    6   19 1
    19    7   20 1
    20    8   21 1
@<TRIPOS>SUBSTRUCTURE
     1 <0>         1 GROUP 0 A     ****
