@<TRIPOS>MOLECULE
AlkEthOH_c877
   25    24     1     0     0
SMALL
USER_CHARGES

@<TRIPOS>ATOM
      1 C1          3.7591   -0.4534   -0.0681 CT        1 <0>       -0.12283
      2 C2         -0.7323    1.5521   -1.6899 CT        1 <0>       -0.11589
      3 C3         -2.4593   -0.1752   -1.1869 CT        1 <0>       -0.11589
      4 C4          2.7496    0.5958    0.3691 CT        1 <0>        0.34100
      5 C5          0.4218    0.7990    0.9256 CT        1 <0>        0.53338
      6 C6         -1.0039    0.2353   -0.9588 CT        1 <0>        0.35960
      7 O1          3.2331    1.1707    1.5777 OH        1 <0>       -0.62290
      8 O2          0.3931    1.0003    2.3411 OH        1 <0>       -0.59772
      9 O3         -0.2017   -0.8110   -1.5035 OH        1 <0>       -0.62046
     10 O4          1.4960   -0.0675    0.5356 OS        1 <0>       -0.48741
     11 O5         -0.8635    0.3812    0.4603 OS        1 <0>       -0.49680
     12 H1          3.8497   -1.2463    0.6809 HC        1 <0>        0.05549
     13 H2          4.7517   -0.0058   -0.1934 HC        1 <0>        0.05549
     14 H3          3.4757   -0.8946   -1.0290 HC        1 <0>        0.05549
     15 H4          0.3047    1.8749   -1.5463 HC        1 <0>        0.05600
     16 H5         -1.3599    2.3629   -1.3062 HC        1 <0>        0.05600
     17 H6         -0.9357    1.4602   -2.7619 HC        1 <0>        0.05600
     18 H7         -2.6957   -1.1162   -0.6785 HC        1 <0>        0.05600
     19 H8         -3.1384    0.5867   -0.7856 HC        1 <0>        0.05600
     20 H9         -2.6838   -0.2771   -2.2543 HC        1 <0>        0.05600
     21 H10         2.6862    1.3707   -0.4034 H2        1 <0>        0.07230
     22 H11         0.6606    1.7746    0.4927 H3        1 <0>        0.10447
     23 H12         4.0986    1.5664    1.3791 HO        1 <0>        0.41610
     24 H13        -0.3521    1.5923    2.5394 HO        1 <0>        0.43053
     25 H14        -0.4272   -0.9063   -2.4441 HO        1 <0>        0.42005
@<TRIPOS>BOND
     1    1    4 1
     2    2    6 1
     3    3    6 1
     4    4    7 1
     5    4   10 1
     6    5    8 1
     7    5   10 1
     8    5   11 1
     9    6    9 1
    10    6   11 1
    11    1   12 1
    12    1   13 1
    13    1   14 1
    14    2   15 1
    15    2   16 1
    16    2   17 1
    17    3   18 1
    18    3   19 1
    19    3   20 1
    20    4   21 1
    21    5   22 1
    22    7   23 1
    23    8   24 1
    24    9   25 1
@<TRIPOS>SUBSTRUCTURE
     1 <0>         1 GROUP 0 A     ****
