@<TRIPOS>MOLECULE
AlkEthOH_c1240
   26    25     1     0     0
SMALL
USER_CHARGES

@<TRIPOS>ATOM
      1 C1          2.6536   -3.1953   -0.0822 CT        1 <0>       -0.09582
      2 C2          1.6701    1.2734   -1.3593 CT        1 <0>       -0.10439
      3 C3         -1.8896   -0.2903    0.4375 CT        1 <0>       -0.13187
      4 C4         -1.0413    1.5699    1.8651 CT        1 <0>       -0.13187
      5 C5          1.5205   -2.1939   -0.1519 CT        1 <0>        0.13412
      6 C6          0.9983    0.0341   -0.7810 CT        1 <0>        0.35785
      7 C7         -0.8792    0.8560    0.5227 CT        1 <0>        0.35890
      8 O1         -1.1454    1.8308   -0.4845 OH        1 <0>       -0.63053
      9 O2          2.0148   -0.9719   -0.6822 OS        1 <0>       -0.42123
     10 O3          0.4697    0.3719    0.5022 OS        1 <0>       -0.44832
     11 H1          3.0659   -3.3879   -1.0766 HC        1 <0>        0.04386
     12 H2          3.4546   -2.8273    0.5674 HC        1 <0>        0.04386
     13 H3          2.3064   -4.1417    0.3455 HC        1 <0>        0.04386
     14 H4          2.4492    1.6405   -0.6813 HC        1 <0>        0.05551
     15 H5          0.9550    2.0882   -1.5041 HC        1 <0>        0.05551
     16 H6          2.1508    1.0459   -2.3161 HC        1 <0>        0.05551
     17 H7         -1.8074   -0.8299   -0.5114 HC        1 <0>        0.05135
     18 H8         -1.7316   -1.0189    1.2393 HC        1 <0>        0.05135
     19 H9         -2.9171    0.0859    0.4918 HC        1 <0>        0.05135
     20 H10        -0.3337    2.4000    1.9661 HC        1 <0>        0.05135
     21 H11        -0.8454    0.8770    2.6922 HC        1 <0>        0.05135
     22 H12        -2.0606    1.9488    1.9964 HC        1 <0>        0.05135
     23 H13         1.1127   -2.0058    0.8458 H1        1 <0>        0.02689
     24 H14         0.7215   -2.5627   -0.8019 H1        1 <0>        0.02689
     25 H15         0.2256   -0.3112   -1.4771 H2        1 <0>        0.03898
     26 H16        -2.0428    2.1763   -0.3446 HO        1 <0>        0.41419
@<TRIPOS>BOND
     1    1    5 1
     2    2    6 1
     3    3    7 1
     4    4    7 1
     5    5    9 1
     6    6    9 1
     7    6   10 1
     8    7    8 1
     9    7   10 1
    10    1   11 1
    11    1   12 1
    12    1   13 1
    13    2   14 1
    14    2   15 1
    15    2   16 1
    16    3   17 1
    17    3   18 1
    18    3   19 1
    19    4   20 1
    20    4   21 1
    21    4   22 1
    22    5   23 1
    23    5   24 1
    24    6   25 1
    25    8   26 1
@<TRIPOS>SUBSTRUCTURE
     1 <0>         1 GROUP 0 A     ****
