@<TRIPOS>MOLECULE
AlkEthOH_c180
   25    24     1     0     0
SMALL
USER_CHARGES

@<TRIPOS>ATOM
      1 C1         -0.1809   -1.3417   -2.2620 CT        1 <0>       -0.10536
      2 C2          2.3261   -1.2529   -2.1358 CT        1 <0>       -0.10536
      3 C3          1.0115   -2.2245   -0.2289 CT        1 <0>       -0.10536
      4 C4         -1.0172    1.5516   -0.4854 CT        1 <0>       -0.13149
      5 C5          0.3028    0.6868    1.4493 CT        1 <0>       -0.13149
      6 C6          1.0255   -1.1748   -1.3393 CT        1 <0>        0.18312
      7 C7         -0.2054    0.3668    0.0430 CT        1 <0>        0.36270
      8 O1         -1.0379   -0.7863    0.1698 OH        1 <0>       -0.62108
      9 O2          0.9647    0.1133   -0.7445 OS        1 <0>       -0.43635
     10 H1         -1.1165   -1.2863   -1.6940 HC        1 <0>        0.04348
     11 H2         -0.2016   -0.5736   -3.0419 HC        1 <0>        0.04348
     12 H3         -0.1705   -2.3254   -2.7452 HC        1 <0>        0.04348
     13 H4          3.1944   -1.1336   -1.4777 HC        1 <0>        0.04348
     14 H5          2.3826   -0.4423   -2.8713 HC        1 <0>        0.04348
     15 H6          2.4198   -2.2073   -2.6638 HC        1 <0>        0.04348
     16 H7          1.8768   -2.1050    0.4331 HC        1 <0>        0.04348
     17 H8          0.1016   -2.1591    0.3764 HC        1 <0>        0.04348
     18 H9          1.0796   -3.2352   -0.6473 HC        1 <0>        0.04348
     19 H10        -1.3956    1.3516   -1.4939 HC        1 <0>        0.04802
     20 H11        -1.8587    1.7835    0.1755 HC        1 <0>        0.04802
     21 H12        -0.4001    2.4531   -0.5628 HC        1 <0>        0.04802
     22 H13         0.8878   -0.1521    1.8450 HC        1 <0>        0.04802
     23 H14        -0.5252    0.8583    2.1457 HC        1 <0>        0.04802
     24 H15         0.9582    1.5644    1.4473 HC        1 <0>        0.04802
     25 H16        -1.7549   -0.5773    0.7918 HO        1 <0>        0.41123
@<TRIPOS>BOND
     1    1    6 1
     2    2    6 1
     3    3    6 1
     4    4    7 1
     5    5    7 1
     6    6    9 1
     7    7    8 1
     8    7    9 1
     9    1   10 1
    10    1   11 1
    11    1   12 1
    12    2   13 1
    13    2   14 1
    14    2   15 1
    15    3   16 1
    16    3   17 1
    17    3   18 1
    18    4   19 1
    19    4   20 1
    20    4   21 1
    21    5   22 1
    22    5   23 1
    23    5   24 1
    24    8   25 1
@<TRIPOS>SUBSTRUCTURE
     1 <0>         1 GROUP 0 A     ****
