@<TRIPOS>MOLECULE
AlkEthOH_c201
   26    25     1     0     0
SMALL
USER_CHARGES

@<TRIPOS>ATOM
      1 C1         -0.4292   -2.2867    0.9718 CT        1 <0>       -0.12448
      2 C2         -1.9164   -0.8202    2.3500 CT        1 <0>       -0.12448
      3 C3          0.3060    1.3507   -1.6140 CT        1 <0>       -0.11134
      4 C4         -0.7100    0.1847    0.3815 CT        1 <0>       -0.10032
      5 C5          1.4944    1.4730   -2.5623 CT        1 <0>        0.13536
      6 C6          0.5243    0.2853   -0.5334 CT        1 <0>        0.15026
      7 C7         -0.6346   -0.8702    1.5102 CT        1 <0>        0.15373
      8 O1          1.2008    2.4640   -3.5382 OH        1 <0>       -0.60863
      9 O2          1.6756    0.6457    0.2232 OH        1 <0>       -0.59747
     10 O3          0.4615   -0.5794    2.3784 OH        1 <0>       -0.60229
     11 H1          0.4801   -2.3578    0.3659 HC        1 <0>        0.04444
     12 H2         -1.2817   -2.6166    0.3695 HC        1 <0>        0.04444
     13 H3         -0.2939   -2.9984    1.7948 HC        1 <0>        0.04444
     14 H4         -2.0960    0.1821    2.7529 HC        1 <0>        0.04444
     15 H5         -1.8632   -1.5258    3.1872 HC        1 <0>        0.04444
     16 H6         -2.7867   -1.1163    1.7529 HC        1 <0>        0.04444
     17 H7          0.1332    2.3306   -1.1501 HC        1 <0>        0.05546
     18 H8         -0.5957    1.1232   -2.1962 HC        1 <0>        0.05546
     19 H9         -0.8574    1.1680    0.8494 HC        1 <0>        0.05648
     20 H10        -1.5938   -0.0181   -0.2370 HC        1 <0>        0.05648
     21 H11         1.6815    0.5247   -3.0759 H1        1 <0>        0.03020
     22 H12         2.4003    1.7741   -2.0274 H1        1 <0>        0.03020
     23 H13         0.7220   -0.6752   -1.0208 H1        1 <0>        0.06276
     24 H14         1.9732    2.5176   -4.1238 HO        1 <0>        0.39837
     25 H15         1.4900    1.5140    0.6141 HO        1 <0>        0.41473
     26 H16         0.4340   -1.2422    3.0846 HO        1 <0>        0.40288
@<TRIPOS>BOND
     1    1    7 1
     2    2    7 1
     3    3    5 1
     4    3    6 1
     5    4    6 1
     6    4    7 1
     7    5    8 1
     8    6    9 1
     9    7   10 1
    10    1   11 1
    11    1   12 1
    12    1   13 1
    13    2   14 1
    14    2   15 1
    15    2   16 1
    16    3   17 1
    17    3   18 1
    18    4   19 1
    19    4   20 1
    20    5   21 1
    21    5   22 1
    22    6   23 1
    23    8   24 1
    24    9   25 1
    25   10   26 1
@<TRIPOS>SUBSTRUCTURE
     1 <0>         1 GROUP 0 A     ****
