@<TRIPOS>MOLECULE
AlkEthOH_c896
   26    25     1     0     0
SMALL
USER_CHARGES

@<TRIPOS>ATOM
      1 C1          1.7176   -0.9589   -0.0987 CT        1 <0>       -0.12693
      2 C2         -1.2556    1.7908   -1.1909 CT        1 <0>       -0.10904
      3 C3          0.7222    2.9215   -2.2487 CT        1 <0>       -0.10904
      4 C4          0.2623    0.4993   -2.7279 CT        1 <0>       -0.10904
      5 C5         -0.5029   -0.8175    1.9979 CT        1 <0>        0.33311
      6 C6          0.5679    0.0308    0.0405 CT        1 <0>        0.33317
      7 C7          0.1798    1.6109   -1.6828 CT        1 <0>        0.15423
      8 O1         -1.8074   -0.8854    1.4392 OH        1 <0>       -0.63870
      9 O2          0.2850    0.2225    1.4283 OS        1 <0>       -0.42261
     10 O3          0.9959    1.2523   -0.5753 OS        1 <0>       -0.40602
     11 H1          2.6027   -0.5964    0.4364 HC        1 <0>        0.04898
     12 H2          1.9992   -1.0840   -1.1492 HC        1 <0>        0.04898
     13 H3          1.4609   -1.9362    0.3204 HC        1 <0>        0.04898
     14 H4         -1.6486    0.8523   -0.7839 HC        1 <0>        0.04484
     15 H5         -1.3228    2.5612   -0.4157 HC        1 <0>        0.04484
     16 H6         -1.9195    2.0718   -2.0164 HC        1 <0>        0.04484
     17 H7          1.7520    2.7970   -2.6029 HC        1 <0>        0.04484
     18 H8          0.7536    3.6973   -1.4753 HC        1 <0>        0.04484
     19 H9          0.1111    3.2858   -3.0808 HC        1 <0>        0.04484
     20 H10         1.2918    0.3700   -3.0809 HC        1 <0>        0.04484
     21 H11        -0.0885   -0.4575   -2.3277 HC        1 <0>        0.04484
     22 H12        -0.3381    0.7488   -3.6103 HC        1 <0>        0.04484
     23 H13        -0.0087   -1.7921    1.9216 H2        1 <0>        0.03703
     24 H14        -0.6197   -0.5873    3.0608 H2        1 <0>        0.03703
     25 H15        -0.3084   -0.3478   -0.5004 H2        1 <0>        0.06210
     26 H16        -2.2737   -1.6154    1.8804 HO        1 <0>        0.41421
@<TRIPOS>BOND
     1    1    6 1
     2    2    7 1
     3    3    7 1
     4    4    7 1
     5    5    8 1
     6    5    9 1
     7    6    9 1
     8    6   10 1
     9    7   10 1
    10    1   11 1
    11    1   12 1
    12    1   13 1
    13    2   14 1
    14    2   15 1
    15    2   16 1
    16    3   17 1
    17    3   18 1
    18    3   19 1
    19    4   20 1
    20    4   21 1
    21    4   22 1
    22    5   23 1
    23    5   24 1
    24    6   25 1
    25    8   26 1
@<TRIPOS>SUBSTRUCTURE
     1 <0>         1 GROUP 0 A     ****
