@<TRIPOS>MOLECULE
AlkEthOH_c266
   28    27     1     0     0
SMALL
USER_CHARGES

@<TRIPOS>ATOM
      1 C1          2.5024    1.0565    0.1927 CT        1 <0>       -0.09070
      2 C2          1.1862    0.5515   -1.8639 CT        1 <0>       -0.09070
      3 C3         -2.3031   -0.6433    1.0605 CT        1 <0>       -0.12603
      4 C4         -0.5849   -2.1526    0.0861 CT        1 <0>       -0.12603
      5 C5         -0.5352    1.7834    0.4206 CT        1 <0>       -0.08287
      6 C6          1.3401    0.2213   -0.3760 CT        1 <0>       -0.08263
      7 C7         -1.0988   -0.7024    0.0997 CT        1 <0>        0.12813
      8 C8          0.0203    0.3454    0.4722 CT        1 <0>        0.17701
      9 O1         -1.6014   -0.4081   -1.2084 OH        1 <0>       -0.59557
     10 O2          0.3834    0.1266    1.8486 OH        1 <0>       -0.59967
     11 H1          2.2783    2.1274    0.1746 HC        1 <0>        0.03942
     12 H2          3.4335    0.8871   -0.3567 HC        1 <0>        0.03942
     13 H3          2.6894    0.7835    1.2377 HC        1 <0>        0.03942
     14 H4          0.8402    1.5833   -1.9943 HC        1 <0>        0.03942
     15 H5          2.1364    0.4743   -2.3977 HC        1 <0>        0.03942
     16 H6          0.4577   -0.1019   -2.3529 HC        1 <0>        0.03942
     17 H7         -2.7232    0.3654    1.1207 HC        1 <0>        0.04482
     18 H8         -3.1216   -1.2757    0.6949 HC        1 <0>        0.04482
     19 H9         -2.0439   -0.9812    2.0685 HC        1 <0>        0.04482
     20 H10         0.2768   -2.2523   -0.5853 HC        1 <0>        0.04482
     21 H11        -1.3520   -2.8582   -0.2461 HC        1 <0>        0.04482
     22 H12        -0.2195   -2.4621    1.0700 HC        1 <0>        0.04482
     23 H13        -1.4538    1.8785    1.0084 HC        1 <0>        0.04980
     24 H14        -0.7465    2.1129   -0.6004 HC        1 <0>        0.04980
     25 H15         0.1564    2.4981    0.8782 HC        1 <0>        0.04980
     26 H16         1.6868   -0.8178   -0.3020 HC        1 <0>        0.03893
     27 H17        -2.2612   -1.0890   -1.4031 HO        1 <0>        0.39865
     28 H18         0.7322   -0.7730    1.8869 HO        1 <0>        0.39664
@<TRIPOS>BOND
     1    1    6 1
     2    2    6 1
     3    3    7 1
     4    4    7 1
     5    5    8 1
     6    6    8 1
     7    7    8 1
     8    7    9 1
     9    8   10 1
    10    1   11 1
    11    1   12 1
    12    1   13 1
    13    2   14 1
    14    2   15 1
    15    2   16 1
    16    3   17 1
    17    3   18 1
    18    3   19 1
    19    4   20 1
    20    4   21 1
    21    4   22 1
    22    5   23 1
    23    5   24 1
    24    5   25 1
    25    6   26 1
    26    9   27 1
    27   10   28 1
@<TRIPOS>SUBSTRUCTURE
     1 <0>         1 GROUP 0 A     ****
