@<TRIPOS>MOLECULE
AlkEthOH_c995
   19    18     1     0     0
SMALL
USER_CHARGES

@<TRIPOS>ATOM
      1 C1          1.0091    1.0437   -2.3478 CT        1 <0>       -0.09026
      2 C2         -0.1020    0.7901   -1.3375 CT        1 <0>       -0.11132
      3 C3         -0.7630   -0.2987    0.8462 CT        1 <0>       -0.11687
      4 C4         -0.3134   -1.1205    2.0506 CT        1 <0>        0.13449
      5 C5          0.3648   -0.0824   -0.1669 CT        1 <0>        0.13538
      6 O1         -1.3999   -1.2859    2.9525 OH        1 <0>       -0.60673
      7 O2          1.4753    0.5364    0.4782 OH        1 <0>       -0.59769
      8 H1          1.3991    0.1060   -2.7557 HC        1 <0>        0.03850
      9 H2          1.8394    1.5732   -1.8698 HC        1 <0>        0.03850
     10 H3          0.6490    1.6582   -3.1792 HC        1 <0>        0.03850
     11 H4         -0.4529    1.7598   -0.9640 HC        1 <0>        0.04439
     12 H5         -0.9439    0.3082   -1.8481 HC        1 <0>        0.04439
     13 H6         -1.6139   -0.7966    0.3650 HC        1 <0>        0.05855
     14 H7         -1.1383    0.6670    1.2090 HC        1 <0>        0.05855
     15 H8          0.0380   -2.1117    1.7466 H1        1 <0>        0.02949
     16 H9          0.4956   -0.6204    2.5915 H1        1 <0>        0.02949
     17 H10         0.7059   -1.0523   -0.5467 H1        1 <0>        0.07543
     18 H11        -1.0673   -1.8116    3.6977 HO        1 <0>        0.40023
     19 H12         1.1654    1.3996    0.7931 HO        1 <0>        0.39698
@<TRIPOS>BOND
     1    1    2 1
     2    2    5 1
     3    3    4 1
     4    3    5 1
     5    4    6 1
     6    5    7 1
     7    1    8 1
     8    1    9 1
     9    1   10 1
    10    2   11 1
    11    2   12 1
    12    3   13 1
    13    3   14 1
    14    4   15 1
    15    4   16 1
    16    5   17 1
    17    6   18 1
    18    7   19 1
@<TRIPOS>SUBSTRUCTURE
     1 <0>         1 GROUP 0 A     ****
