@<TRIPOS>MOLECULE
AlkEthOH_c329
   30    29     1     0     0
SMALL
USER_CHARGES

@<TRIPOS>ATOM
      1 C1         -1.9289    1.7336   -0.1277 CT        1 <0>       -0.08822
      2 C2          0.3538    0.9196   -0.7444 CT        1 <0>       -0.08822
      3 C3         -0.0192    1.6440    2.2492 CT        1 <0>       -0.10509
      4 C4          0.9522    5.1421    0.1782 CT        1 <0>       -0.10718
      5 C5         -0.5301    6.1606    1.9316 CT        1 <0>       -0.10718
      6 C6          1.3560    4.6485    2.6129 CT        1 <0>       -0.10718
      7 C7         -0.4527    2.1211   -0.2344 CT        1 <0>       -0.07524
      8 C8          0.1204    2.6388    1.1017 CT        1 <0>        0.14359
      9 C9          0.3017    4.9393    1.5459 CT        1 <0>        0.15323
     10 O1         -0.5788    3.8302    1.4669 OS        1 <0>       -0.42339
     11 H1         -2.0780    0.9431    0.6156 HC        1 <0>        0.03527
     12 H2         -2.5472    2.5909    0.1544 HC        1 <0>        0.03527
     13 H3         -2.3062    1.3684   -1.0892 HC        1 <0>        0.03527
     14 H4          0.3066    0.0809   -0.0421 HC        1 <0>        0.03527
     15 H5          1.4098    1.1844   -0.8662 HC        1 <0>        0.03527
     16 H6         -0.0220    0.5739   -1.7135 HC        1 <0>        0.03527
     17 H7         -1.0600    1.3510    2.4113 HC        1 <0>        0.04110
     18 H8          0.5584    0.7363    2.0424 HC        1 <0>        0.04110
     19 H9          0.3791    2.0634    3.1795 HC        1 <0>        0.04110
     20 H10         1.5502    4.2676   -0.1023 HC        1 <0>        0.04235
     21 H11         0.2044    5.3169   -0.6022 HC        1 <0>        0.04235
     22 H12         1.6406    5.9948    0.1951 HC        1 <0>        0.04235
     23 H13        -0.9988    6.0195    2.9123 HC        1 <0>        0.04235
     24 H14        -1.3476    6.3171    1.2186 HC        1 <0>        0.04235
     25 H15         0.0788    7.0697    1.9659 HC        1 <0>        0.04235
     26 H16         0.8896    4.5030    3.5940 HC        1 <0>        0.04235
     27 H17         1.9384    3.7535    2.3711 HC        1 <0>        0.04235
     28 H18         2.0451    5.4939    2.7204 HC        1 <0>        0.04235
     29 H19        -0.3556    2.9131   -0.9888 HC        1 <0>        0.05101
     30 H20         1.1771    2.9031    0.9762 H1        1 <0>        0.03780
@<TRIPOS>BOND
     1    1    7 1
     2    2    7 1
     3    3    8 1
     4    4    9 1
     5    5    9 1
     6    6    9 1
     7    7    8 1
     8    8   10 1
     9    9   10 1
    10    1   11 1
    11    1   12 1
    12    1   13 1
    13    2   14 1
    14    2   15 1
    15    2   16 1
    16    3   17 1
    17    3   18 1
    18    3   19 1
    19    4   20 1
    20    4   21 1
    21    4   22 1
    22    5   23 1
    23    5   24 1
    24    5   25 1
    25    6   26 1
    26    6   27 1
    27    6   28 1
    28    7   29 1
    29    8   30 1
@<TRIPOS>SUBSTRUCTURE
     1 <0>         1 GROUP 0 A     ****
