@<TRIPOS>MOLECULE
AlkEthOH_c504
   28    27     1     0     0
SMALL
USER_CHARGES

@<TRIPOS>ATOM
      1 C1          2.5433    2.5003    2.6584 CT        1 <0>       -0.10661
      2 C2          0.5945    0.9414    2.3065 CT        1 <0>       -0.10661
      3 C3          2.8436   -1.2687   -1.4107 CT        1 <0>       -0.13007
      4 C4          4.0514    1.2316   -0.0251 CT        1 <0>       -0.10238
      5 C5          2.4074    1.7537   -1.8363 CT        1 <0>       -0.10238
      6 C6          1.9484    1.4030    1.7891 CT        1 <0>        0.13786
      7 C7          2.1047   -0.3548   -0.4361 CT        1 <0>        0.11733
      8 C8          2.5832    1.1163   -0.4553 CT        1 <0>        0.16502
      9 O1          0.7150   -0.3967   -0.7708 OH        1 <0>       -0.58606
     10 O2          1.8020    1.8852    0.4639 OS        1 <0>       -0.40913
     11 H1          1.8783    3.3676    2.7136 HC        1 <0>        0.04208
     12 H2          2.7192    2.1289    3.6737 HC        1 <0>        0.04208
     13 H3          3.5145    2.8275    2.2710 HC        1 <0>        0.04208
     14 H4         -0.1170    1.7715    2.3534 HC        1 <0>        0.04208
     15 H5          0.6960    0.5105    3.3084 HC        1 <0>        0.04208
     16 H6          0.1752    0.1564    1.6676 HC        1 <0>        0.04208
     17 H7          2.7736   -0.9094   -2.4407 HC        1 <0>        0.04425
     18 H8          2.4590   -2.2931   -1.3652 HC        1 <0>        0.04425
     19 H9          3.9055   -1.3261   -1.1461 HC        1 <0>        0.04425
     20 H10         4.2172    0.7852    0.9616 HC        1 <0>        0.04663
     21 H11         4.3479    2.2830    0.0670 HC        1 <0>        0.04663
     22 H12         4.7189    0.7461   -0.7445 HC        1 <0>        0.04663
     23 H13         1.3693    1.6911   -2.1791 HC        1 <0>        0.04663
     24 H14         2.6447    2.8237   -1.8031 HC        1 <0>        0.04663
     25 H15         3.0541    1.2815   -2.5828 HC        1 <0>        0.04663
     26 H16         2.6358    0.5515    1.7542 H1        1 <0>        0.03309
     27 H17         2.2038   -0.7562    0.5798 H1        1 <0>        0.03059
     28 H18         0.4410   -1.3208   -0.6769 HO        1 <0>        0.39434
@<TRIPOS>BOND
     1    1    6 1
     2    2    6 1
     3    3    7 1
     4    4    8 1
     5    5    8 1
     6    6   10 1
     7    7    8 1
     8    7    9 1
     9    8   10 1
    10    1   11 1
    11    1   12 1
    12    1   13 1
    13    2   14 1
    14    2   15 1
    15    2   16 1
    16    3   17 1
    17    3   18 1
    18    3   19 1
    19    4   20 1
    20    4   21 1
    21    4   22 1
    22    5   23 1
    23    5   24 1
    24    5   25 1
    25    6   26 1
    26    7   27 1
    27    9   28 1
@<TRIPOS>SUBSTRUCTURE
     1 <0>         1 GROUP 0 A     ****
