@<TRIPOS>MOLECULE
AlkEthOH_c257
   21    20     1     0     0
SMALL
USER_CHARGES

@<TRIPOS>ATOM
      1 C1         -0.4467   -0.0973   -1.9138 CT        1 <0>       -0.11326
      2 C2         -1.7750   -0.7083    0.0902 CT        1 <0>       -0.11326
      3 C3          0.8513   -1.5696    1.2447 CT        1 <0>        0.33138
      4 C4          1.0825    1.6484   -0.1134 CT        1 <0>        0.33138
      5 C5         -0.3892   -0.2519   -0.3868 CT        1 <0>        0.35026
      6 O1          1.3332   -0.4829    2.0194 OH        1 <0>       -0.60147
      7 O2          1.4695    2.5883    0.8819 OH        1 <0>       -0.60147
      8 O3          0.6120   -1.2476   -0.1215 OS        1 <0>       -0.48343
      9 O4         -0.1364    1.0108    0.2487 OS        1 <0>       -0.48343
     10 H1          0.5193    0.2286   -2.3155 HC        1 <0>        0.05560
     11 H2         -0.6705   -1.0545   -2.3980 HC        1 <0>        0.05560
     12 H3         -1.1978    0.6408   -2.2143 HC        1 <0>        0.05560
     13 H4         -1.7938   -0.8359    1.1785 HC        1 <0>        0.05560
     14 H5         -2.0384   -1.6845   -0.3316 HC        1 <0>        0.05560
     15 H6         -2.5544    0.0038   -0.2006 HC        1 <0>        0.05560
     16 H7          1.6335   -2.3345    1.2522 H2        1 <0>        0.05747
     17 H8         -0.0275   -2.0164    1.7199 H2        1 <0>        0.05747
     18 H9          1.8906    0.9163   -0.2001 H2        1 <0>        0.05747
     19 H10         0.9720    2.1794   -1.0639 H2        1 <0>        0.05747
     20 H11         1.4604   -0.8119    2.9253 HO        1 <0>        0.40991
     21 H12         2.3029    2.9916    0.5853 HO        1 <0>        0.40991
@<TRIPOS>BOND
     1    1    5 1
     2    2    5 1
     3    3    6 1
     4    3    8 1
     5    4    7 1
     6    4    9 1
     7    5    8 1
     8    5    9 1
     9    1   10 1
    10    1   11 1
    11    1   12 1
    12    2   13 1
    13    2   14 1
    14    2   15 1
    15    3   16 1
    16    3   17 1
    17    4   18 1
    18    4   19 1
    19    6   20 1
    20    7   21 1
@<TRIPOS>SUBSTRUCTURE
     1 <0>         1 GROUP 0 A     ****
