@<TRIPOS>MOLECULE
AlkEthOH_c994
   18    17     1     0     0
SMALL
USER_CHARGES

@<TRIPOS>ATOM
      1 C1         -0.2299    0.9454    0.2524 CT        1 <0>       -0.09018
      2 C2         -2.7412   -0.2455    4.5088 CT        1 <0>       -0.09018
      3 C3         -0.4534    1.2393    1.7303 CT        1 <0>       -0.11220
      4 C4         -1.6986    0.6411    3.8403 CT        1 <0>       -0.11220
      5 C5         -1.5325    0.3415    2.3459 CT        1 <0>        0.13548
      6 O1         -1.1462   -1.0186    2.1649 OH        1 <0>       -0.59438
      7 H1         -1.1624    1.0829   -0.3041 HC        1 <0>        0.03760
      8 H2          0.5203    1.6153   -0.1791 HC        1 <0>        0.03760
      9 H3          0.1039   -0.0866    0.1050 HC        1 <0>        0.03760
     10 H4         -3.7105   -0.1232    4.0148 HC        1 <0>        0.03760
     11 H5         -2.4584   -1.3009    4.4435 HC        1 <0>        0.03760
     12 H6         -2.8711    0.0138    5.5637 HC        1 <0>        0.03760
     13 H7          0.4981    1.0921    2.2559 HC        1 <0>        0.04194
     14 H8         -0.7352    2.2926    1.8430 HC        1 <0>        0.04194
     15 H9         -0.7427    0.4948    4.3577 HC        1 <0>        0.04194
     16 H10        -1.9917    1.6886    3.9765 HC        1 <0>        0.04194
     17 H11        -2.4821    0.4995    1.8209 H1        1 <0>        0.07573
     18 H12        -0.2958   -1.1267    2.6182 HO        1 <0>        0.39457
@<TRIPOS>BOND
     1    1    3 1
     2    2    4 1
     3    3    5 1
     4    4    5 1
     5    5    6 1
     6    1    7 1
     7    1    8 1
     8    1    9 1
     9    2   10 1
    10    2   11 1
    11    2   12 1
    12    3   13 1
    13    3   14 1
    14    4   15 1
    15    4   16 1
    16    5   17 1
    17    6   18 1
@<TRIPOS>SUBSTRUCTURE
     1 <0>         1 GROUP 0 A     ****
