@<TRIPOS>MOLECULE
AlkEthOH_c903
   22    21     1     0     0
SMALL
USER_CHARGES

@<TRIPOS>ATOM
      1 C1          0.9468   -0.1196   -0.0145 CT        1 <0>       -0.08947
      2 C2          3.7447    1.8730   -2.8852 CT        1 <0>       -0.12196
      3 C3          1.7831    2.7847   -4.1321 CT        1 <0>       -0.12196
      4 C4          1.8626    0.9179   -0.6551 CT        1 <0>       -0.10985
      5 C5          1.4013    1.2997   -2.0715 CT        1 <0>        0.16076
      6 C6          2.2977    2.3663   -2.7513 CT        1 <0>        0.11452
      7 O1          0.0519    1.7554   -1.9916 OH        1 <0>       -0.59873
      8 O2          2.3221    3.5416   -1.9349 OH        1 <0>       -0.60939
      9 H1          0.9134   -1.0237   -0.6308 HC        1 <0>        0.03665
     10 H2          1.3011   -0.4047    0.9809 HC        1 <0>        0.03665
     11 H3         -0.0741    0.2641    0.0794 HC        1 <0>        0.03665
     12 H4          4.1647    1.5598   -1.9245 HC        1 <0>        0.04559
     13 H5          4.3855    2.6563   -3.3060 HC        1 <0>        0.04559
     14 H6          3.8033    1.0245   -3.5770 HC        1 <0>        0.04559
     15 H7          0.7500    3.1445   -4.0816 HC        1 <0>        0.04559
     16 H8          2.3705    3.6228   -4.5257 HC        1 <0>        0.04559
     17 H9          1.8345    1.9634   -4.8538 HC        1 <0>        0.04559
     18 H10         1.8650    1.8013   -0.0065 HC        1 <0>        0.05102
     19 H11         2.8812    0.5159   -0.6794 HC        1 <0>        0.05102
     20 H12         1.4100    0.3863   -2.6807 H1        1 <0>        0.07290
     21 H13         0.0555    2.5228   -1.3993 HO        1 <0>        0.41308
     22 H14         2.8825    4.1807   -2.3982 HO        1 <0>        0.40457
@<TRIPOS>BOND
     1    1    4 1
     2    2    6 1
     3    3    6 1
     4    4    5 1
     5    5    6 1
     6    5    7 1
     7    6    8 1
     8    1    9 1
     9    1   10 1
    10    1   11 1
    11    2   12 1
    12    2   13 1
    13    2   14 1
    14    3   15 1
    15    3   16 1
    16    3   17 1
    17    4   18 1
    18    4   19 1
    19    5   20 1
    20    7   21 1
    21    8   22 1
@<TRIPOS>SUBSTRUCTURE
     1 <0>         1 GROUP 0 A     ****
