@<TRIPOS>MOLECULE
AlkEthOH_c55
   28    27     1     0     0
SMALL
USER_CHARGES

@<TRIPOS>ATOM
      1 C1          0.8630    0.5184    0.4252 CT        1 <0>       -0.12210
      2 C2          4.4717    0.9151    2.0906 CT        1 <0>       -0.12793
      3 C3         -0.1617    0.8895    4.2156 CT        1 <0>       -0.08662
      4 C4         -0.4333    2.5308    2.3520 CT        1 <0>       -0.08662
      5 C5         -1.6530    0.3565    2.2772 CT        1 <0>       -0.08662
      6 C6          0.8983    0.4211    1.9487 CT        1 <0>        0.15044
      7 C7          3.2081    0.1174    2.3754 CT        1 <0>        0.33054
      8 C8         -0.3301    1.0282    2.6910 CT        1 <0>       -0.04613
      9 O1          3.3537   -0.5931    3.6014 OH        1 <0>       -0.61707
     10 O2          2.1114    1.0274    2.4011 OS        1 <0>       -0.40480
     11 H1          0.7862    1.5685    0.1206 HC        1 <0>        0.04132
     12 H2          1.7620    0.1001   -0.0344 HC        1 <0>        0.04132
     13 H3         -0.0162    0.0172    0.0086 HC        1 <0>        0.04132
     14 H4          4.6491    1.6581    2.8745 HC        1 <0>        0.05210
     15 H5          5.3475    0.2571    2.0623 HC        1 <0>        0.05210
     16 H6          4.4069    1.4189    1.1211 HC        1 <0>        0.05210
     17 H7         -0.0822   -0.1587    4.5216 HC        1 <0>        0.03758
     18 H8         -1.0199    1.3158    4.7480 HC        1 <0>        0.03758
     19 H9          0.7362    1.4128    4.5628 HC        1 <0>        0.03758
     20 H10        -0.5549    2.6838    1.2738 HC        1 <0>        0.03758
     21 H11         0.4687    3.0704    2.6631 HC        1 <0>        0.03758
     22 H12        -1.2849    3.0008    2.8559 HC        1 <0>        0.03758
     23 H13        -1.8092    0.4345    1.1948 HC        1 <0>        0.03758
     24 H14        -1.6633   -0.7088    2.5300 HC        1 <0>        0.03758
     25 H15        -2.5144    0.8278    2.7612 HC        1 <0>        0.03758
     26 H16         0.9753   -0.6411    2.2122 H1        1 <0>        0.04698
     27 H17         3.0610   -0.6150    1.5735 H2        1 <0>        0.02740
     28 H18         4.1129   -1.1939    3.5168 HO        1 <0>        0.40405
@<TRIPOS>BOND
     1    1    6 1
     2    2    7 1
     3    3    8 1
     4    4    8 1
     5    5    8 1
     6    6    8 1
     7    6   10 1
     8    7    9 1
     9    7   10 1
    10    1   11 1
    11    1   12 1
    12    1   13 1
    13    2   14 1
    14    2   15 1
    15    2   16 1
    16    3   17 1
    17    3   18 1
    18    3   19 1
    19    4   20 1
    20    4   21 1
    21    4   22 1
    22    5   23 1
    23    5   24 1
    24    5   25 1
    25    6   26 1
    26    7   27 1
    27    9   28 1
@<TRIPOS>SUBSTRUCTURE
     1 <0>         1 GROUP 0 A     ****
