@<TRIPOS>MOLECULE
AlkEthOH_c799
   17    16     1     0     0
SMALL
USER_CHARGES

@<TRIPOS>ATOM
      1 C1         -0.6062    0.9264    0.6648 CT        1 <0>       -0.13209
      2 C2         -0.8331   -0.7088    2.5635 CT        1 <0>        0.13446
      3 C3         -0.9793   -2.1702    4.4141 CT        1 <0>        0.32577
      4 C4         -0.1831    0.5832    2.0850 CT        1 <0>        0.13663
      5 O1         -0.5216   -3.3265    3.7279 OH        1 <0>       -0.63164
      6 O2         -0.5895    1.6384    2.9552 OH        1 <0>       -0.59076
      7 O3         -0.4246   -0.9632    3.9033 OS        1 <0>       -0.39676
      8 H1         -1.6967    1.0050    0.5978 HC        1 <0>        0.04448
      9 H2         -0.1694    1.8751    0.3381 HC        1 <0>        0.04448
     10 H3         -0.3043    0.1399   -0.0355 HC        1 <0>        0.04448
     11 H4         -1.9253   -0.6300    2.5545 H1        1 <0>        0.04367
     12 H5         -0.5228   -1.5580    1.9467 H1        1 <0>        0.04367
     13 H6         -2.0750   -2.1375    4.4120 H2        1 <0>        0.03908
     14 H7         -0.6517   -2.2597    5.4539 H2        1 <0>        0.03908
     15 H8          0.9076    0.5046    2.1521 H1        1 <0>        0.04988
     16 H9         -0.9495   -4.0950    4.1419 HO        1 <0>        0.40839
     17 H10        -0.1450    2.4403    2.6406 HO        1 <0>        0.39718
@<TRIPOS>BOND
     1    1    4 1
     2    2    4 1
     3    2    7 1
     4    3    5 1
     5    3    7 1
     6    4    6 1
     7    1    8 1
     8    1    9 1
     9    1   10 1
    10    2   11 1
    11    2   12 1
    12    3   13 1
    13    3   14 1
    14    4   15 1
    15    5   16 1
    16    6   17 1
@<TRIPOS>SUBSTRUCTURE
     1 <0>         1 GROUP 0 A     ****
