@<TRIPOS>MOLECULE
AlkEthOH_c439
   25    24     1     0     0
SMALL
USER_CHARGES

@<TRIPOS>ATOM
      1 C1          1.6647    1.8336    0.4663 CT        1 <0>       -0.08971
      2 C2          2.9950   -0.1139   -0.3701 CT        1 <0>       -0.08971
      3 C3         -2.0372   -0.6802   -0.1131 CT        1 <0>       -0.12097
      4 C4          0.4925   -0.3228   -0.2365 CT        1 <0>       -0.06833
      5 C5         -2.0723   -1.2027    1.3168 CT        1 <0>        0.13578
      6 C6          1.6694    0.6429   -0.4932 CT        1 <0>       -0.06821
      7 C7         -0.8989    0.3097   -0.3873 CT        1 <0>        0.14239
      8 O1         -3.1576   -2.1096    1.4693 OH        1 <0>       -0.60265
      9 O2         -1.0391    0.7868   -1.7255 OH        1 <0>       -0.59588
     10 H1          1.7300    1.4947    1.5059 HC        1 <0>        0.03235
     11 H2          2.5194    2.4929    0.2875 HC        1 <0>        0.03235
     12 H3          0.7486    2.4247    0.3611 HC        1 <0>        0.03235
     13 H4          3.1176   -0.5228    0.6385 HC        1 <0>        0.03235
     14 H5          3.0461   -0.9452   -1.0814 HC        1 <0>        0.03235
     15 H6          3.8427    0.5517   -0.5643 HC        1 <0>        0.03235
     16 H7         -1.9829   -1.5233   -0.8148 HC        1 <0>        0.06192
     17 H8         -2.9976   -0.2007   -0.3461 HC        1 <0>        0.06192
     18 H9          0.5768   -1.1516   -0.9521 HC        1 <0>        0.04729
     19 H10         0.5972   -0.7543    0.7659 HC        1 <0>        0.04729
     20 H11        -2.1991   -0.3875    2.0362 H1        1 <0>        0.02390
     21 H12        -1.1563   -1.7447    1.5663 H1        1 <0>        0.02390
     22 H13         1.6028    1.0273   -1.5184 HC        1 <0>        0.06732
     23 H14        -0.9980    1.1690    0.2846 H1        1 <0>        0.03275
     24 H15        -3.1393   -2.4140    2.3907 HO        1 <0>        0.39945
     25 H16        -1.9059    1.2176   -1.7732 HO        1 <0>        0.39745
@<TRIPOS>BOND
     1    1    6 1
     2    2    6 1
     3    3    5 1
     4    3    7 1
     5    4    6 1
     6    4    7 1
     7    5    8 1
     8    7    9 1
     9    1   10 1
    10    1   11 1
    11    1   12 1
    12    2   13 1
    13    2   14 1
    14    2   15 1
    15    3   16 1
    16    3   17 1
    17    4   18 1
    18    4   19 1
    19    5   20 1
    20    5   21 1
    21    6   22 1
    22    7   23 1
    23    8   24 1
    24    9   25 1
@<TRIPOS>SUBSTRUCTURE
     1 <0>         1 GROUP 0 A     ****
