@<TRIPOS>MOLECULE
AlkEthOH_c319
   32    31     1     0     0
SMALL
USER_CHARGES

@<TRIPOS>ATOM
      1 C1         -1.4432   -1.8115   -2.0674 CT        1 <0>       -0.08984
      2 C2         -0.8394   -2.6764    0.2103 CT        1 <0>       -0.08984
      3 C3         -1.9363    0.9469   -0.7131 CT        1 <0>       -0.09214
      4 C4          2.7006    0.8601    0.3396 CT        1 <0>       -0.08707
      5 C5          0.7122    1.1963    1.8094 CT        1 <0>       -0.08707
      6 C6          1.0173    2.6073   -0.2401 CT        1 <0>       -0.08707
      7 C7          0.4523    0.1126   -0.4821 CT        1 <0>       -0.06417
      8 C8         -1.5434   -1.5536   -0.5611 CT        1 <0>       -0.06327
      9 C9         -1.0339   -0.1483   -0.1202 CT        1 <0>       -0.05768
     10 C10         1.1956    1.2006    0.3477 CT        1 <0>       -0.05033
     11 H1         -0.4095   -1.7680   -2.4233 HC        1 <0>        0.03303
     12 H2         -1.8330   -2.8064   -2.3107 HC        1 <0>        0.03303
     13 H3         -2.0313   -1.0868   -2.6379 HC        1 <0>        0.03303
     14 H4          0.2344   -2.6825   -0.0043 HC        1 <0>        0.03303
     15 H5         -1.2418   -3.6634   -0.0362 HC        1 <0>        0.03303
     16 H6         -0.9593   -2.5322    1.2896 HC        1 <0>        0.03303
     17 H7         -1.8716    0.9710   -1.8039 HC        1 <0>        0.03317
     18 H8         -1.6364    1.9357   -0.3498 HC        1 <0>        0.03317
     19 H9         -2.9880    0.7953   -0.4512 HC        1 <0>        0.03317
     20 H10         3.0991    0.8493   -0.6813 HC        1 <0>        0.03360
     21 H11         2.8881   -0.1262    0.7790 HC        1 <0>        0.03360
     22 H12         3.2754    1.5943    0.9154 HC        1 <0>        0.03360
     23 H13        -0.3534    1.4315    1.8905 HC        1 <0>        0.03360
     24 H14         1.2532    1.9413    2.4043 HC        1 <0>        0.03360
     25 H15         0.8757    0.2188    2.2767 HC        1 <0>        0.03360
     26 H16        -0.0389    2.8974   -0.2564 HC        1 <0>        0.03360
     27 H17         1.3873    2.6531   -1.2709 HC        1 <0>        0.03360
     28 H18         1.5712    3.3590    0.3311 HC        1 <0>        0.03360
     29 H19         1.0293   -0.8138   -0.3791 HC        1 <0>        0.04001
     30 H20         0.5189    0.3718   -1.5479 HC        1 <0>        0.04001
     31 H21        -2.6072   -1.6159   -0.2929 HC        1 <0>        0.04046
     32 H22        -1.1618   -0.0992    0.9670 HC        1 <0>        0.04791
@<TRIPOS>BOND
     1    1    8 1
     2    2    8 1
     3    3    9 1
     4    4   10 1
     5    5   10 1
     6    6   10 1
     7    7    9 1
     8    7   10 1
     9    8    9 1
    10    1   11 1
    11    1   12 1
    12    1   13 1
    13    2   14 1
    14    2   15 1
    15    2   16 1
    16    3   17 1
    17    3   18 1
    18    3   19 1
    19    4   20 1
    20    4   21 1
    21    4   22 1
    22    5   23 1
    23    5   24 1
    24    5   25 1
    25    6   26 1
    26    6   27 1
    27    6   28 1
    28    7   29 1
    29    7   30 1
    30    8   31 1
    31    9   32 1
@<TRIPOS>SUBSTRUCTURE
     1 <0>         1 GROUP 0 A     ****
