@<TRIPOS>MOLECULE
AlkEthOH_c57
   33    32     1     0     0
SMALL
USER_CHARGES

@<TRIPOS>ATOM
      1 C1          1.3514   -2.4895    1.3217 CT        1 <0>       -0.13069
      2 C2         -1.5679    2.2139    0.7090 CT        1 <0>       -0.08767
      3 C3          0.8230    1.9181    0.1274 CT        1 <0>       -0.08767
      4 C4         -0.7826    2.6305   -1.6323 CT        1 <0>       -0.08767
      5 C5         -1.0637   -0.5813    1.7218 CT        1 <0>       -0.08971
      6 C6         -1.3009   -2.1707   -0.1699 CT        1 <0>       -0.08971
      7 C7         -0.7947    0.2049   -0.7076 CT        1 <0>       -0.06551
      8 C8          1.0132   -1.2933    0.4310 CT        1 <0>        0.14163
      9 C9         -0.6208    1.7284   -0.4043 CT        1 <0>       -0.04644
     10 C10        -0.4968   -0.9372    0.3309 CT        1 <0>       -0.03119
     11 O1          1.5254   -1.5659   -0.8742 OH        1 <0>       -0.60353
     12 H1          0.8262   -3.3819    0.9616 HC        1 <0>        0.04262
     13 H2          1.0106   -2.3375    2.3505 HC        1 <0>        0.04262
     14 H3          2.4213   -2.7121    1.3255 HC        1 <0>        0.04262
     15 H4         -2.6203    2.1225    0.4339 HC        1 <0>        0.03326
     16 H5         -1.3994    3.2745    0.9317 HC        1 <0>        0.03326
     17 H6         -1.4081    1.6566    1.6386 HC        1 <0>        0.03326
     18 H7          1.5640    1.5932   -0.6121 HC        1 <0>        0.03326
     19 H8          1.0302    2.9693    0.3587 HC        1 <0>        0.03326
     20 H9          0.9861    1.3386    1.0433 HC        1 <0>        0.03326
     21 H10        -0.1269    2.3223   -2.4513 HC        1 <0>        0.03326
     22 H11        -1.8071    2.5855   -2.0210 HC        1 <0>        0.03326
     23 H12        -0.5743    3.6774   -1.3877 HC        1 <0>        0.03326
     24 H13        -0.5506    0.2853    2.1545 HC        1 <0>        0.03724
     25 H14        -0.9364   -1.4094    2.4280 HC        1 <0>        0.03724
     26 H15        -2.1252   -0.3267    1.6840 HC        1 <0>        0.03724
     27 H16        -0.9634   -2.4965   -1.1600 HC        1 <0>        0.03724
     28 H17        -2.3697   -1.9375   -0.2459 HC        1 <0>        0.03724
     29 H18        -1.2103   -3.0234    0.5111 HC        1 <0>        0.03724
     30 H19        -1.8387    0.0594   -1.0254 HC        1 <0>        0.04853
     31 H20        -0.2051   -0.0053   -1.6128 HC        1 <0>        0.04853
     32 H21         1.5588   -0.4333    0.8302 H1        1 <0>        0.03358
     33 H22         2.4821   -1.6805   -0.7736 HO        1 <0>        0.39688
@<TRIPOS>BOND
     1    1    8 1
     2    2    9 1
     3    3    9 1
     4    4    9 1
     5    5   10 1
     6    6   10 1
     7    7    9 1
     8    7   10 1
     9    8   10 1
    10    8   11 1
    11    1   12 1
    12    1   13 1
    13    1   14 1
    14    2   15 1
    15    2   16 1
    16    2   17 1
    17    3   18 1
    18    3   19 1
    19    3   20 1
    20    4   21 1
    21    4   22 1
    22    4   23 1
    23    5   24 1
    24    5   25 1
    25    5   26 1
    26    6   27 1
    27    6   28 1
    28    6   29 1
    29    7   30 1
    30    7   31 1
    31    8   32 1
    32   11   33 1
@<TRIPOS>SUBSTRUCTURE
     1 <0>         1 GROUP 0 A     ****
