@<TRIPOS>MOLECULE
AlkEthOH_c42
   20    19     1     0     0
SMALL
USER_CHARGES

@<TRIPOS>ATOM
      1 C1         -1.0083    2.4197    0.8759 CT        1 <0>       -0.12880
      2 C2         -0.6604   -2.2439   -1.2280 CT        1 <0>       -0.12880
      3 C3         -0.0929    1.2560    0.5156 CT        1 <0>        0.10733
      4 C4          0.0846   -1.1054   -0.5446 CT        1 <0>        0.10733
      5 C5         -0.7887    0.1261   -0.2601 CT        1 <0>        0.15402
      6 O1          0.9694    1.7823   -0.2842 OH        1 <0>       -0.61061
      7 O2          0.5693   -1.5859    0.7141 OH        1 <0>       -0.61061
      8 O3         -1.9279   -0.3026    0.4980 OH        1 <0>       -0.59466
      9 H1         -1.4785    2.8229   -0.0280 HC        1 <0>        0.04670
     10 H2         -0.4612    3.2296    1.3659 HC        1 <0>        0.04670
     11 H3         -1.8257    2.0985    1.5302 HC        1 <0>        0.04670
     12 H4         -1.5437   -2.5351   -0.6490 HC        1 <0>        0.04670
     13 H5         -0.0238   -3.1330   -1.2961 HC        1 <0>        0.04670
     14 H6         -0.9744   -1.9758   -2.2404 HC        1 <0>        0.04670
     15 H7          0.3680    0.8655    1.4287 H1        1 <0>        0.05674
     16 H8          0.9658   -0.8211   -1.1304 H1        1 <0>        0.05674
     17 H9         -1.1910    0.5250   -1.1998 H1        1 <0>        0.08724
     18 H10         1.4195    2.4424    0.2630 HO        1 <0>        0.40532
     19 H11         1.1565   -2.3281    0.5113 HO        1 <0>        0.40532
     20 H12        -1.5832   -0.6112    1.3474 HO        1 <0>        0.41324
@<TRIPOS>BOND
     1    1    3 1
     2    2    4 1
     3    3    5 1
     4    3    6 1
     5    4    5 1
     6    4    7 1
     7    5    8 1
     8    1    9 1
     9    1   10 1
    10    1   11 1
    11    2   12 1
    12    2   13 1
    13    2   14 1
    14    3   15 1
    15    4   16 1
    16    5   17 1
    17    6   18 1
    18    7   19 1
    19    8   20 1
@<TRIPOS>SUBSTRUCTURE
     1 <0>         1 GROUP 0 A     ****
