@<TRIPOS>MOLECULE
AlkEthOH_c940
   22    21     1     0     0
SMALL
USER_CHARGES

@<TRIPOS>ATOM
      1 C1         -0.6454    0.3354    0.8029 CT        1 <0>       -0.09026
      2 C2         -2.1689   -0.4444   -1.7717 CT        1 <0>       -0.10203
      3 C3         -4.0814    0.9472   -0.9518 CT        1 <0>       -0.10203
      4 C4         -1.8896    1.0450    0.2809 CT        1 <0>       -0.09788
      5 C5         -4.2903   -0.5520    1.1978 CT        1 <0>        0.32582
      6 C6         -2.8429    0.1483   -0.5334 CT        1 <0>        0.15078
      7 O1         -5.5942   -0.5809    0.6353 OH        1 <0>       -0.62053
      8 O2         -3.2783   -0.9433    0.2800 OS        1 <0>       -0.41069
      9 H1         -0.9363   -0.5295    1.4083 HC        1 <0>        0.03796
     10 H2         -0.0456    0.9936    1.4379 HC        1 <0>        0.03796
     11 H3         -0.0168   -0.0258   -0.0166 HC        1 <0>        0.03796
     12 H4         -1.2780   -1.0231   -1.5075 HC        1 <0>        0.04567
     13 H5         -2.8545   -1.0891   -2.3317 HC        1 <0>        0.04567
     14 H6         -1.8702    0.3487   -2.4675 HC        1 <0>        0.04567
     15 H7         -4.5890    1.3863   -0.0869 HC        1 <0>        0.04567
     16 H8         -3.8108    1.7535   -1.6432 HC        1 <0>        0.04567
     17 H9         -4.7957    0.3107   -1.4865 HC        1 <0>        0.04567
     18 H10        -1.5798    1.9073   -0.3223 HC        1 <0>        0.03986
     19 H11        -2.4272    1.4407    1.1525 HC        1 <0>        0.03986
     20 H12        -4.0840    0.4364    1.6246 H2        1 <0>        0.03897
     21 H13        -4.2745   -1.2772    2.0165 H2        1 <0>        0.03897
     22 H14        -6.2136   -0.3008    1.3302 HO        1 <0>        0.40126
@<TRIPOS>BOND
     1    1    4 1
     2    2    6 1
     3    3    6 1
     4    4    6 1
     5    5    7 1
     6    5    8 1
     7    6    8 1
     8    1    9 1
     9    1   10 1
    10    1   11 1
    11    2   12 1
    12    2   13 1
    13    2   14 1
    14    3   15 1
    15    3   16 1
    16    3   17 1
    17    4   18 1
    18    4   19 1
    19    5   20 1
    20    5   21 1
    21    7   22 1
@<TRIPOS>SUBSTRUCTURE
     1 <0>         1 GROUP 0 A     ****
