@<TRIPOS>MOLECULE
AlkEthOH_c1099
   28    27     1     0     0
SMALL
USER_CHARGES

@<TRIPOS>ATOM
      1 C1          1.6878    2.5778    2.8678 CT        1 <0>       -0.09126
      2 C2         -2.3886   -1.2334   -2.2202 CT        1 <0>       -0.12554
      3 C3         -0.6874   -2.5869   -0.9815 CT        1 <0>       -0.12554
      4 C4          1.7726    1.4366    1.8656 CT        1 <0>       -0.07804
      5 C5          0.4423    1.2366    1.1337 CT        1 <0>       -0.10435
      6 C6         -0.8728   -0.0676   -0.5828 CT        1 <0>       -0.10219
      7 C7          0.4814    0.0668    0.1381 CT        1 <0>        0.14910
      8 C8         -0.9838   -1.2230   -1.6060 CT        1 <0>        0.15531
      9 O1          1.5046    0.2944   -0.8249 OH        1 <0>       -0.59446
     10 O2         -0.0509   -1.0286   -2.6698 OH        1 <0>       -0.60258
     11 H1          1.4122    3.5077    2.3605 HC        1 <0>        0.03122
     12 H2          2.6495    2.7353    3.3664 HC        1 <0>        0.03122
     13 H3          0.9327    2.3716    3.6331 HC        1 <0>        0.03122
     14 H4         -2.6238   -0.2642   -2.6748 HC        1 <0>        0.04425
     15 H5         -2.4881   -2.0098   -2.9858 HC        1 <0>        0.04425
     16 H6         -3.1502   -1.4052   -1.4511 HC        1 <0>        0.04425
     17 H7          0.3144   -2.5999   -0.5361 HC        1 <0>        0.04425
     18 H8         -1.3788   -2.8117   -0.1625 HC        1 <0>        0.04425
     19 H9         -0.7438   -3.3908   -1.7224 HC        1 <0>        0.04425
     20 H10         2.0493    0.5162    2.3925 HC        1 <0>        0.04737
     21 H11         2.5719    1.6563    1.1496 HC        1 <0>        0.04737
     22 H12         0.1955    2.1635    0.6003 HC        1 <0>        0.03890
     23 H13        -0.3499    1.0600    1.8715 HC        1 <0>        0.03890
     24 H14        -1.0607    0.8740   -1.1174 HC        1 <0>        0.05454
     25 H15        -1.6647   -0.1791    0.1690 HC        1 <0>        0.05454
     26 H16         0.7118   -0.8598    0.6745 H1        1 <0>        0.06337
     27 H17         1.2820    1.1240   -1.2762 HO        1 <0>        0.41227
     28 H18        -0.1729   -1.7718   -3.2793 HO        1 <0>        0.40313
@<TRIPOS>BOND
     1    1    4 1
     2    2    8 1
     3    3    8 1
     4    4    5 1
     5    5    7 1
     6    6    7 1
     7    6    8 1
     8    7    9 1
     9    8   10 1
    10    1   11 1
    11    1   12 1
    12    1   13 1
    13    2   14 1
    14    2   15 1
    15    2   16 1
    16    3   17 1
    17    3   18 1
    18    3   19 1
    19    4   20 1
    20    4   21 1
    21    5   22 1
    22    5   23 1
    23    6   24 1
    24    6   25 1
    25    7   26 1
    26    9   27 1
    27   10   28 1
@<TRIPOS>SUBSTRUCTURE
     1 <0>         1 GROUP 0 A     ****
