@<TRIPOS>MOLECULE
AlkEthOH_c849
   21    20     1     0     0
SMALL
USER_CHARGES

@<TRIPOS>ATOM
      1 C1         -2.6608   -0.3555   -1.1011 CT        1 <0>       -0.12699
      2 C2          0.9165    1.6321    1.2339 CT        1 <0>       -0.10665
      3 C3          1.5944    0.0360   -0.6016 CT        1 <0>        0.10766
      4 C4         -1.2568   -0.7205   -0.6438 CT        1 <0>        0.34207
      5 C5          0.6071    0.2986    0.5445 CT        1 <0>        0.36141
      6 O1          1.5342    1.0784   -1.5678 OH        1 <0>       -0.59343
      7 O2         -1.3710   -1.8672    0.1909 OH        1 <0>       -0.62938
      8 O3          0.7504   -0.7488    1.5056 OH        1 <0>       -0.62589
      9 O4         -0.7347    0.4126    0.0474 OS        1 <0>       -0.43714
     10 H1         -3.2963   -0.0990   -0.2475 HC        1 <0>        0.05433
     11 H2         -3.1311   -1.2000   -1.6179 HC        1 <0>        0.05433
     12 H3         -2.6394    0.4857   -1.8013 HC        1 <0>        0.05433
     13 H4          0.2071    1.8119    2.0508 HC        1 <0>        0.05558
     14 H5          0.8188    2.4708    0.5363 HC        1 <0>        0.05558
     15 H6          1.9187    1.6431    1.6747 HC        1 <0>        0.05558
     16 H7          1.3744   -0.9168   -1.0952 H1        1 <0>        0.04316
     17 H8          2.6246    0.0009   -0.2335 H1        1 <0>        0.04316
     18 H9         -0.6590   -0.9686   -1.5258 H2        1 <0>        0.04305
     19 H10         2.1765    0.8544   -2.2600 HO        1 <0>        0.40233
     20 H11        -1.7689   -2.5726   -0.3470 HO        1 <0>        0.40949
     21 H12         0.1243   -0.5861    2.2309 HO        1 <0>        0.43742
@<TRIPOS>BOND
     1    1    4 1
     2    2    5 1
     3    3    5 1
     4    3    6 1
     5    4    7 1
     6    4    9 1
     7    5    8 1
     8    5    9 1
     9    1   10 1
    10    1   11 1
    11    1   12 1
    12    2   13 1
    13    2   14 1
    14    2   15 1
    15    3   16 1
    16    3   17 1
    17    4   18 1
    18    6   19 1
    19    7   20 1
    20    8   21 1
@<TRIPOS>SUBSTRUCTURE
     1 <0>         1 GROUP 0 A     ****
