@<TRIPOS>MOLECULE
AlkEthOH_c1242
   25    24     1     0     0
SMALL
USER_CHARGES

@<TRIPOS>ATOM
      1 C1         -2.3495    0.5428   -4.3180 CT        1 <0>       -0.09791
      2 C2          1.2973   -4.3806   -2.1349 CT        1 <0>       -0.10751
      3 C3          1.9382   -2.6195   -3.8200 CT        1 <0>       -0.10751
      4 C4         -0.0326   -1.0089   -0.4213 CT        1 <0>       -0.10981
      5 C5         -1.1160   -0.2148   -3.8747 CT        1 <0>        0.13272
      6 C6          1.3525   -2.8921   -2.4428 CT        1 <0>        0.14433
      7 C7          0.0350   -0.9855   -1.9430 CT        1 <0>        0.33520
      8 O1         -1.1004   -0.2838   -2.4553 OS        1 <0>       -0.41453
      9 O2          0.0393   -2.3517   -2.3774 OS        1 <0>       -0.44781
     10 H1         -3.2594    0.0369   -3.9832 HC        1 <0>        0.04423
     11 H2         -2.3425    1.5610   -3.9155 HC        1 <0>        0.04423
     12 H3         -2.3761    0.6320   -5.4091 HC        1 <0>        0.04423
     13 H4          0.7012   -4.9182   -2.8786 HC        1 <0>        0.04309
     14 H5          2.3070   -4.8049   -2.1225 HC        1 <0>        0.04309
     15 H6          0.8678   -4.5627   -1.1435 HC        1 <0>        0.04309
     16 H7          1.3574   -3.1151   -4.6039 HC        1 <0>        0.04309
     17 H8          2.9723   -2.9766   -3.8718 HC        1 <0>        0.04309
     18 H9          1.9657   -1.5448   -4.0309 HC        1 <0>        0.04309
     19 H10        -0.9633   -1.4805   -0.0861 HC        1 <0>        0.05204
     20 H11        -0.0085    0.0004   -0.0004 HC        1 <0>        0.05204
     21 H12         0.7968   -1.5881   -0.0030 HC        1 <0>        0.05204
     22 H13        -0.2097    0.2964   -4.2128 H1        1 <0>        0.03126
     23 H14        -1.1250   -1.2321   -4.2771 H1        1 <0>        0.03126
     24 H15         1.9546   -2.3838   -1.6826 H1        1 <0>        0.03405
     25 H16         0.9718   -0.5106   -2.2632 H2        1 <0>        0.02891
@<TRIPOS>BOND
     1    1    5 1
     2    2    6 1
     3    3    6 1
     4    4    7 1
     5    5    8 1
     6    6    9 1
     7    7    8 1
     8    7    9 1
     9    1   10 1
    10    1   11 1
    11    1   12 1
    12    2   13 1
    13    2   14 1
    14    2   15 1
    15    3   16 1
    16    3   17 1
    17    3   18 1
    18    4   19 1
    19    4   20 1
    20    4   21 1
    21    5   22 1
    22    5   23 1
    23    6   24 1
    24    7   25 1
@<TRIPOS>SUBSTRUCTURE
     1 <0>         1 GROUP 0 A     ****
