@<TRIPOS>MOLECULE
AlkEthOH_c1009
   27    26     1     0     0
SMALL
USER_CHARGES

@<TRIPOS>ATOM
      1 C1         -0.4198   -0.6420   -0.8367 CT        1 <0>       -0.09131
      2 C2         -5.8042   -4.0801   -1.4361 CT        1 <0>       -0.08727
      3 C3         -3.5403   -5.1218   -1.4873 CT        1 <0>       -0.08727
      4 C4         -4.2567   -3.5765   -3.3255 CT        1 <0>       -0.08727
      5 C5         -1.8480   -1.0316   -0.4875 CT        1 <0>       -0.08137
      6 C6         -2.3084   -2.2535   -1.2933 CT        1 <0>       -0.10844
      7 C7         -3.7704   -2.6276   -0.9894 CT        1 <0>        0.14541
      8 C8         -4.3253   -3.8360   -1.8089 CT        1 <0>       -0.08476
      9 O1         -4.5672   -1.4638   -1.2276 OH        1 <0>       -0.59664
     10 H1         -0.3247   -0.4159   -1.9036 HC        1 <0>        0.03261
     11 H2         -0.1212    0.2471   -0.2728 HC        1 <0>        0.03261
     12 H3          0.2784   -1.4491   -0.5928 HC        1 <0>        0.03261
     13 H4         -6.4164   -3.1948   -1.6439 HC        1 <0>        0.03677
     14 H5         -6.2224   -4.9138   -2.0111 HC        1 <0>        0.03677
     15 H6         -5.9232   -4.3097   -0.3719 HC        1 <0>        0.03677
     16 H7         -2.4788   -5.0071   -1.7326 HC        1 <0>        0.03677
     17 H8         -3.6092   -5.3703   -0.4217 HC        1 <0>        0.03677
     18 H9         -3.9254   -5.9849   -2.0393 HC        1 <0>        0.03677
     19 H10        -3.2298   -3.3947   -3.6585 HC        1 <0>        0.03677
     20 H11        -4.6295   -4.4402   -3.8885 HC        1 <0>        0.03677
     21 H12        -4.8629   -2.7108   -3.6133 HC        1 <0>        0.03677
     22 H13        -1.9078   -1.2507    0.5848 HC        1 <0>        0.04567
     23 H14        -2.5057   -0.1770   -0.6826 HC        1 <0>        0.04567
     24 H15        -1.6438   -3.0920   -1.0627 HC        1 <0>        0.04519
     25 H16        -2.1955   -2.0183   -2.3582 HC        1 <0>        0.04519
     26 H17        -3.8485   -2.8576    0.0814 H1        1 <0>        0.07254
     27 H18        -4.4380   -1.2328   -2.1590 HO        1 <0>        0.39590
@<TRIPOS>BOND
     1    1    5 1
     2    2    8 1
     3    3    8 1
     4    4    8 1
     5    5    6 1
     6    6    7 1
     7    7    8 1
     8    7    9 1
     9    1   10 1
    10    1   11 1
    11    1   12 1
    12    2   13 1
    13    2   14 1
    14    2   15 1
    15    3   16 1
    16    3   17 1
    17    3   18 1
    18    4   19 1
    19    4   20 1
    20    4   21 1
    21    5   22 1
    22    5   23 1
    23    6   24 1
    24    6   25 1
    25    7   26 1
    26    9   27 1
@<TRIPOS>SUBSTRUCTURE
     1 <0>         1 GROUP 0 A     ****
