@<TRIPOS>MOLECULE
AlkEthOH_c158
   31    30     1     0     0
SMALL
USER_CHARGES

@<TRIPOS>ATOM
      1 C1          0.4876    2.5288    0.4160 CT        1 <0>       -0.08749
      2 C2         -0.7645    0.8833    1.8066 CT        1 <0>       -0.08749
      3 C3          1.5479    0.3523    1.0808 CT        1 <0>       -0.08749
      4 C4         -0.9225   -1.5828   -2.1488 CT        1 <0>       -0.10855
      5 C5         -0.5327   -2.1116    0.2540 CT        1 <0>       -0.10855
      6 C6         -0.3895    0.3243   -0.6044 CT        1 <0>       -0.08329
      7 C7          1.5859   -1.0209   -2.4939 CT        1 <0>        0.32949
      8 C8          0.2389    1.0306    0.6373 CT        1 <0>       -0.04401
      9 C9         -0.1401   -1.1793   -0.8883 CT        1 <0>        0.16389
     10 O1          2.9871   -0.9057   -2.6956 OH        1 <0>       -0.58550
     11 O2          1.2429   -1.4034   -1.1688 OS        1 <0>       -0.41346
     12 H1          1.1950    2.6927   -0.4055 HC        1 <0>        0.03552
     13 H2          0.9115    2.9961    1.3116 HC        1 <0>        0.03552
     14 H3         -0.4316    3.0605    0.1529 HC        1 <0>        0.03552
     15 H4         -0.9810   -0.1715    2.0110 HC        1 <0>        0.03552
     16 H5         -1.7135    1.3828    1.5806 HC        1 <0>        0.03552
     17 H6         -0.3715    1.3268    2.7287 HC        1 <0>        0.03552
     18 H7          1.3962   -0.7212    1.2458 HC        1 <0>        0.03552
     19 H8          1.9340    0.7573    2.0177 HC        1 <0>        0.03552
     20 H9          2.3281    0.4595    0.3192 HC        1 <0>        0.03552
     21 H10        -0.6664   -0.9334   -2.9940 HC        1 <0>        0.04540
     22 H11        -0.7202   -2.6204   -2.4339 HC        1 <0>        0.04540
     23 H12        -2.0018   -1.4704   -1.9931 HC        1 <0>        0.04540
     24 H13         0.0093   -1.8503    1.1713 HC        1 <0>        0.04540
     25 H14        -0.3116   -3.1572    0.0185 HC        1 <0>        0.04540
     26 H15        -1.5908   -2.0102    0.5108 HC        1 <0>        0.04540
     27 H16        -0.0296    0.8676   -1.4910 HC        1 <0>        0.03975
     28 H17        -1.4751    0.4949   -0.5752 HC        1 <0>        0.03975
     29 H18         1.0837   -0.0911   -2.7852 H2        1 <0>        0.01860
     30 H19         1.2273   -1.8137   -3.1567 H2        1 <0>        0.01860
     31 H20         3.1239   -0.6428   -3.6214 HO        1 <0>        0.40367
@<TRIPOS>BOND
     1    1    8 1
     2    2    8 1
     3    3    8 1
     4    4    9 1
     5    5    9 1
     6    6    8 1
     7    6    9 1
     8    7   10 1
     9    7   11 1
    10    9   11 1
    11    1   12 1
    12    1   13 1
    13    1   14 1
    14    2   15 1
    15    2   16 1
    16    2   17 1
    17    3   18 1
    18    3   19 1
    19    3   20 1
    20    4   21 1
    21    4   22 1
    22    4   23 1
    23    5   24 1
    24    5   25 1
    25    5   26 1
    26    6   27 1
    27    6   28 1
    28    7   29 1
    29    7   30 1
    30   10   31 1
@<TRIPOS>SUBSTRUCTURE
     1 <0>         1 GROUP 0 A     ****
