@<TRIPOS>MOLECULE
AlkEthOH_c159
   31    30     1     0     0
SMALL
USER_CHARGES

@<TRIPOS>ATOM
      1 C1          2.2552    1.0927    1.6034 CT        1 <0>       -0.08686
      2 C2          0.1674    2.0913    0.7162 CT        1 <0>       -0.08686
      3 C3          1.7475    0.9660   -0.8468 CT        1 <0>       -0.08686
      4 C4         -1.6829   -1.9305    0.7767 CT        1 <0>       -0.13132
      5 C5         -1.4959   -0.2205   -1.0667 CT        1 <0>       -0.11164
      6 C6          0.3159   -0.4071    0.8171 CT        1 <0>       -0.05616
      7 C7         -0.8360   -1.1370   -2.0896 CT        1 <0>        0.13248
      8 C8          1.1402    0.8964    0.5612 CT        1 <0>       -0.04597
      9 C9         -1.1781   -0.5232    0.4068 CT        1 <0>        0.16154
     10 O1         -1.2202   -0.7124   -3.3924 OH        1 <0>       -0.60273
     11 O2         -1.9581    0.3935    1.1857 OH        1 <0>       -0.59699
     12 H1          2.9994    0.2952    1.5757 HC        1 <0>        0.03555
     13 H2          2.7972    2.0294    1.4254 HC        1 <0>        0.03555
     14 H3          1.8456    1.1425    2.6182 HC        1 <0>        0.03555
     15 H4         -0.6628    2.0264    0.0035 HC        1 <0>        0.03555
     16 H5          0.6811    3.0437    0.5421 HC        1 <0>        0.03555
     17 H6         -0.2658    2.1229    1.7224 HC        1 <0>        0.03555
     18 H7          0.9767    0.8293   -1.6147 HC        1 <0>        0.03555
     19 H8          2.4973    0.1812   -0.9948 HC        1 <0>        0.03555
     20 H9          2.2170    1.9354   -1.0399 HC        1 <0>        0.03555
     21 H10        -1.4632   -2.1608    1.8256 HC        1 <0>        0.04236
     22 H11        -2.7596   -2.0384    0.6136 HC        1 <0>        0.04236
     23 H12        -1.1722   -2.6977    0.1828 HC        1 <0>        0.04236
     24 H13        -2.5849   -0.2697   -1.2156 HC        1 <0>        0.06278
     25 H14        -1.2750    0.8279   -1.2970 HC        1 <0>        0.06278
     26 H15         0.3404   -0.5749    1.9048 HC        1 <0>        0.04647
     27 H16         0.8681   -1.2522    0.3835 HC        1 <0>        0.04647
     28 H17         0.2537   -1.1015   -2.0276 H1        1 <0>        0.02483
     29 H18        -1.1646   -2.1725   -1.9629 H1        1 <0>        0.02483
     30 H19        -0.7865   -1.3123   -4.0198 HO        1 <0>        0.39993
     31 H20        -2.8790    0.2478    0.9278 HO        1 <0>        0.39625
@<TRIPOS>BOND
     1    1    8 1
     2    2    8 1
     3    3    8 1
     4    4    9 1
     5    5    7 1
     6    5    9 1
     7    6    8 1
     8    6    9 1
     9    7   10 1
    10    9   11 1
    11    1   12 1
    12    1   13 1
    13    1   14 1
    14    2   15 1
    15    2   16 1
    16    2   17 1
    17    3   18 1
    18    3   19 1
    19    3   20 1
    20    4   21 1
    21    4   22 1
    22    4   23 1
    23    5   24 1
    24    5   25 1
    25    6   26 1
    26    6   27 1
    27    7   28 1
    28    7   29 1
    29   10   30 1
    30   11   31 1
@<TRIPOS>SUBSTRUCTURE
     1 <0>         1 GROUP 0 A     ****
