@<TRIPOS>MOLECULE
AlkEthOH_c715
   22    21     1     0     0
SMALL
USER_CHARGES

@<TRIPOS>ATOM
      1 C1          0.8736   -0.7339   -3.0972 CT        1 <0>       -0.12953
      2 C2         -0.1747   -0.1295    0.6035 CT        1 <0>       -0.07666
      3 C3         -0.9554    1.0003    1.2826 CT        1 <0>       -0.08448
      4 C4         -0.0700    0.1000   -0.9083 CT        1 <0>       -0.07033
      5 C5         -1.0963    0.7824    2.7841 CT        1 <0>        0.13263
      6 C6          0.7435   -0.9969   -1.6031 CT        1 <0>        0.13976
      7 O1         -1.8416    1.8449    3.3608 OH        1 <0>       -0.60390
      8 O2          2.0492   -1.0723   -1.0373 OH        1 <0>       -0.60232
      9 H1          1.3517    0.2357   -3.2734 HC        1 <0>        0.04255
     10 H2          1.4684   -1.5107   -3.5871 HC        1 <0>        0.04255
     11 H3         -0.1105   -0.6909   -3.5767 HC        1 <0>        0.04255
     12 H4         -0.6761   -1.0861    0.7941 HC        1 <0>        0.04801
     13 H5          0.8293   -0.1979    1.0381 HC        1 <0>        0.04801
     14 H6         -0.4349    1.9487    1.1017 HC        1 <0>        0.05363
     15 H7         -1.9540    1.0782    0.8374 HC        1 <0>        0.05363
     16 H8         -1.0765    0.1400   -1.3421 HC        1 <0>        0.04909
     17 H9          0.4026    1.0751   -1.0818 HC        1 <0>        0.04909
     18 H10        -1.6275   -0.1548    2.9779 H1        1 <0>        0.02100
     19 H11        -0.1149    0.7361    3.2670 H1        1 <0>        0.02100
     20 H12         0.2637   -1.9698   -1.4510 H1        1 <0>        0.02812
     21 H13        -1.9033    1.6610    4.3124 HO        1 <0>        0.39772
     22 H14         2.5026   -1.8034   -1.4850 HO        1 <0>        0.39788
@<TRIPOS>BOND
     1    1    6 1
     2    2    3 1
     3    2    4 1
     4    3    5 1
     5    4    6 1
     6    5    7 1
     7    6    8 1
     8    1    9 1
     9    1   10 1
    10    1   11 1
    11    2   12 1
    12    2   13 1
    13    3   14 1
    14    3   15 1
    15    4   16 1
    16    4   17 1
    17    5   18 1
    18    5   19 1
    19    6   20 1
    20    7   21 1
    21    8   22 1
@<TRIPOS>SUBSTRUCTURE
     1 <0>         1 GROUP 0 A     ****
