@<TRIPOS>MOLECULE
AlkEthOH_c1214
   27    26     1     0     0
SMALL
USER_CHARGES

@<TRIPOS>ATOM
      1 C1          3.8209   -0.5664    0.1045 CT        1 <0>       -0.09653
      2 C2         -1.8786    1.6755    1.5460 CT        1 <0>       -0.12984
      3 C3         -0.6658   -0.4607    1.9665 CT        1 <0>       -0.12984
      4 C4          0.3208    0.4881   -2.3253 CT        1 <0>       -0.12207
      5 C5          2.5465   -0.8814   -0.6494 CT        1 <0>        0.14227
      6 C6         -0.6554    0.8397    1.1618 CT        1 <0>        0.37180
      7 C7          0.2706   -0.1163   -0.9136 CT        1 <0>        0.54266
      8 O1          0.4828    1.6252    1.5188 OH        1 <0>       -0.59656
      9 O2         -0.1199   -1.4890   -1.0187 OH        1 <0>       -0.64742
     10 O3          1.5455    0.0545   -0.2770 OS        1 <0>       -0.40717
     11 O4         -0.7595    0.6484   -0.2543 OS        1 <0>       -0.44617
     12 H1          4.1773    0.4394   -0.1346 HC        1 <0>        0.04530
     13 H2          3.6575   -0.6361    1.1850 HC        1 <0>        0.04530
     14 H3          4.6056   -1.2880   -0.1458 HC        1 <0>        0.04530
     15 H4         -1.8936    2.6153    0.9808 HC        1 <0>        0.05216
     16 H5         -1.8674    1.9400    2.6090 HC        1 <0>        0.05216
     17 H6         -2.8103    1.1466    1.3174 HC        1 <0>        0.05216
     18 H7          0.1990   -1.0851    1.7154 HC        1 <0>        0.05216
     19 H8         -0.6633   -0.2645    3.0436 HC        1 <0>        0.05216
     20 H9         -1.5504   -1.0641    1.7365 HC        1 <0>        0.05216
     21 H10         0.6150    1.5423   -2.3122 HC        1 <0>        0.05990
     22 H11         1.0500   -0.0418   -2.9492 HC        1 <0>        0.05990
     23 H12        -0.6564    0.4143   -2.8152 HC        1 <0>        0.05990
     24 H13         2.1954   -1.8886   -0.4058 H1        1 <0>        0.03434
     25 H14         2.7113   -0.8105   -1.7287 H1        1 <0>        0.03434
     26 H15         0.4435    1.7920    2.4756 HO        1 <0>        0.40137
     27 H16        -0.9961   -1.5430   -1.4341 HO        1 <0>        0.42026
@<TRIPOS>BOND
     1    1    5 1
     2    2    6 1
     3    3    6 1
     4    4    7 1
     5    5   10 1
     6    6    8 1
     7    6   11 1
     8    7    9 1
     9    7   10 1
    10    7   11 1
    11    1   12 1
    12    1   13 1
    13    1   14 1
    14    2   15 1
    15    2   16 1
    16    2   17 1
    17    3   18 1
    18    3   19 1
    19    3   20 1
    20    4   21 1
    21    4   22 1
    22    4   23 1
    23    5   24 1
    24    5   25 1
    25    8   26 1
    26    9   27 1
@<TRIPOS>SUBSTRUCTURE
     1 <0>         1 GROUP 0 A     ****
