@<TRIPOS>MOLECULE
AlkEthOH_c465
   24    23     1     0     0
SMALL
USER_CHARGES

@<TRIPOS>ATOM
      1 C1         -0.7817    0.3501   -0.5480 CT        1 <0>       -0.09138
      2 C2         -1.9033    0.8078   -2.7370 CT        1 <0>       -0.09138
      3 C3          5.4070    1.7729   -2.3440 CT        1 <0>        0.11698
      4 C4          1.9188    0.6451   -1.9879 CT        1 <0>       -0.08281
      5 C5          0.5833    1.1215   -2.5608 CT        1 <0>       -0.07354
      6 C6          3.0766    1.5026   -2.4820 CT        1 <0>        0.12772
      7 C7         -0.6231    0.3007   -2.0684 CT        1 <0>       -0.06569
      8 O1          4.2831    1.0216   -1.9054 OS        1 <0>       -0.42198
      9 H1         -0.9267    1.3774   -0.1969 HC        1 <0>        0.03381
     10 H2          0.0956   -0.0634   -0.0416 HC        1 <0>        0.03381
     11 H3         -1.6471   -0.2408   -0.2287 HC        1 <0>        0.03381
     12 H4         -2.0930    1.8535   -2.4728 HC        1 <0>        0.03381
     13 H5         -2.7731    0.2169   -2.4303 HC        1 <0>        0.03381
     14 H6         -1.8222    0.7505   -3.8276 HC        1 <0>        0.03381
     15 H7          6.3143    1.3761   -1.8820 H1        1 <0>        0.03155
     16 H8          5.2745    2.8224   -2.0694 H1        1 <0>        0.03155
     17 H9          5.4880    1.6900   -3.4304 H1        1 <0>        0.03155
     18 H10         1.9040    0.6711   -0.8925 HC        1 <0>        0.05547
     19 H11         2.0993   -0.4012   -2.2638 HC        1 <0>        0.05547
     20 H12         0.6293    1.0593   -3.6558 HC        1 <0>        0.03881
     21 H13         0.4379    2.1805   -2.3125 HC        1 <0>        0.03881
     22 H14         2.9418    2.5479   -2.1862 H1        1 <0>        0.02425
     23 H15         3.1664    1.4488   -3.5716 H1        1 <0>        0.02425
     24 H16        -0.4814   -0.7462   -2.3653 HC        1 <0>        0.04751
@<TRIPOS>BOND
     1    1    7 1
     2    2    7 1
     3    3    8 1
     4    4    5 1
     5    4    6 1
     6    5    7 1
     7    6    8 1
     8    1    9 1
     9    1   10 1
    10    1   11 1
    11    2   12 1
    12    2   13 1
    13    2   14 1
    14    3   15 1
    15    3   16 1
    16    3   17 1
    17    4   18 1
    18    4   19 1
    19    5   20 1
    20    5   21 1
    21    6   22 1
    22    6   23 1
    23    7   24 1
@<TRIPOS>SUBSTRUCTURE
     1 <0>         1 GROUP 0 A     ****
