@<TRIPOS>MOLECULE
AlkEthOH_c577
   24    23     1     0     0
SMALL
USER_CHARGES

@<TRIPOS>ATOM
      1 C1         -0.4163    1.6092   -3.1679 CT        1 <0>       -0.11195
      2 C2          1.5787    2.8604   -2.2701 CT        1 <0>       -0.11195
      3 C3          1.0296   -2.4827    1.3055 CT        1 <0>       -0.12881
      4 C4          0.6690    1.6529   -2.1030 CT        1 <0>        0.15264
      5 C5          1.4265   -1.0140    1.2737 CT        1 <0>        0.35025
      6 C6          0.8528    1.0503    0.1846 CT        1 <0>        0.52805
      7 O1          2.8160   -0.9017    0.9824 OH        1 <0>       -0.63446
      8 O2          0.7222    1.7263    1.4360 OH        1 <0>       -0.62276
      9 O3          0.0622    1.6983   -0.8181 OS        1 <0>       -0.44242
     10 O4          0.6107   -0.3584    0.3011 OS        1 <0>       -0.48437
     11 H1         -1.0316    2.5137   -3.1452 HC        1 <0>        0.04612
     12 H2          0.0304    1.5145   -4.1634 HC        1 <0>        0.04612
     13 H3         -1.0676    0.7387   -3.0318 HC        1 <0>        0.04612
     14 H4          1.0109    3.7948   -2.2261 HC        1 <0>        0.04612
     15 H5          2.1015    2.8135   -3.2314 HC        1 <0>        0.04612
     16 H6          2.3508    2.8827   -1.4931 HC        1 <0>        0.04612
     17 H7          1.1912   -2.9495    0.3273 HC        1 <0>        0.05529
     18 H8          1.6278   -3.0348    2.0369 HC        1 <0>        0.05529
     19 H9         -0.0323   -2.5940    1.5469 HC        1 <0>        0.05529
     20 H10         1.2657    0.7362   -2.1516 H1        1 <0>        0.04723
     21 H11         1.2521   -0.5815    2.2648 H2        1 <0>        0.06650
     22 H12         1.9061    1.1493   -0.1047 H3        1 <0>        0.10869
     23 H13         3.3121   -1.3652    1.6778 HO        1 <0>        0.41209
     24 H14         1.0297    2.6400    1.3111 HO        1 <0>        0.42868
@<TRIPOS>BOND
     1    1    4 1
     2    2    4 1
     3    3    5 1
     4    4    9 1
     5    5    7 1
     6    5   10 1
     7    6    8 1
     8    6    9 1
     9    6   10 1
    10    1   11 1
    11    1   12 1
    12    1   13 1
    13    2   14 1
    14    2   15 1
    15    2   16 1
    16    3   17 1
    17    3   18 1
    18    3   19 1
    19    4   20 1
    20    5   21 1
    21    6   22 1
    22    7   23 1
    23    8   24 1
@<TRIPOS>SUBSTRUCTURE
     1 <0>         1 GROUP 0 A     ****
