@<TRIPOS>MOLECULE
AlkEthOH_c524
   32    31     1     0     0
SMALL
USER_CHARGES

@<TRIPOS>ATOM
      1 C1         -2.2043    0.0208   -2.6830 CT        1 <0>       -0.10370
      2 C2         -3.5692    1.4209   -1.0928 CT        1 <0>       -0.10370
      3 C3          1.7708   -1.2409   -0.9758 CT        1 <0>       -0.13057
      4 C4          1.4759   -2.2917    1.2719 CT        1 <0>       -0.13057
      5 C5         -0.6550    2.2154    0.9435 CT        1 <0>       -0.14747
      6 C6          0.4616   -0.0249    0.8923 CT        1 <0>       -0.08557
      7 C7         -2.1717    0.9884   -1.5098 CT        1 <0>        0.14847
      8 C8          0.8323   -1.3753    0.2235 CT        1 <0>        0.16099
      9 C9         -0.3329    1.0082    0.0506 CT        1 <0>        0.36108
     10 O1         -0.3569   -2.0401   -0.2101 OH        1 <0>       -0.56869
     11 O2          0.5143    1.4341   -1.0180 OH        1 <0>       -0.62630
     12 O3         -1.5270    0.3661   -0.4087 OS        1 <0>       -0.39512
     13 H1         -2.7881   -0.8734   -2.4442 HC        1 <0>        0.04001
     14 H2         -2.6457    0.5026   -3.5621 HC        1 <0>        0.04001
     15 H3         -1.1924   -0.2872   -2.9686 HC        1 <0>        0.04001
     16 H4         -4.1855    0.5601   -0.8162 HC        1 <0>        0.04001
     17 H5         -4.0626    1.9561   -1.9112 HC        1 <0>        0.04001
     18 H6         -3.5309    2.1117   -0.2434 HC        1 <0>        0.04001
     19 H7          1.3461   -0.5923   -1.7489 HC        1 <0>        0.04377
     20 H8          2.7501   -0.8516   -0.6799 HC        1 <0>        0.04377
     21 H9          1.9213   -2.2132   -1.4598 HC        1 <0>        0.04377
     22 H10         0.8236   -2.4067    2.1455 HC        1 <0>        0.04377
     23 H11         2.4131   -1.8615    1.6440 HC        1 <0>        0.04377
     24 H12         1.6879   -3.2857    0.8643 HC        1 <0>        0.04377
     25 H13        -1.2180    2.9752    0.3901 HC        1 <0>        0.04792
     26 H14        -1.2828    1.9277    1.7938 HC        1 <0>        0.04792
     27 H15         0.2578    2.6661    1.3472 HC        1 <0>        0.04792
     28 H16         1.3863    0.4530    1.2431 HC        1 <0>        0.05796
     29 H17        -0.1446   -0.2648    1.7776 HC        1 <0>        0.05796
     30 H18        -1.5816    1.8703   -1.7798 H1        1 <0>        0.05811
     31 H19        -0.0782   -2.9058   -0.5430 HO        1 <0>        0.39061
     32 H20         1.3313    1.7976   -0.6378 HO        1 <0>        0.41007
@<TRIPOS>BOND
     1    1    7 1
     2    2    7 1
     3    3    8 1
     4    4    8 1
     5    5    9 1
     6    6    8 1
     7    6    9 1
     8    7   12 1
     9    8   10 1
    10    9   11 1
    11    9   12 1
    12    1   13 1
    13    1   14 1
    14    1   15 1
    15    2   16 1
    16    2   17 1
    17    2   18 1
    18    3   19 1
    19    3   20 1
    20    3   21 1
    21    4   22 1
    22    4   23 1
    23    4   24 1
    24    5   25 1
    25    5   26 1
    26    5   27 1
    27    6   28 1
    28    6   29 1
    29    7   30 1
    30   10   31 1
    31   11   32 1
@<TRIPOS>SUBSTRUCTURE
     1 <0>         1 GROUP 0 A     ****
