@<TRIPOS>MOLECULE
AlkEthOH_c476
   24    23     1     0     0
SMALL
USER_CHARGES

@<TRIPOS>ATOM
      1 C1          1.0495   -0.3816   -0.2534 CT        1 <0>       -0.09057
      2 C2          1.1039    1.1686   -2.2261 CT        1 <0>       -0.09057
      3 C3          1.6409    2.8644    2.8427 CT        1 <0>       -0.10720
      4 C4          4.1107    2.3703    2.9283 CT        1 <0>       -0.10720
      5 C5          1.9991    1.9493   -0.0132 CT        1 <0>        0.13205
      6 C6          1.8182    0.7470   -0.9439 CT        1 <0>       -0.06738
      7 C7          2.9122    2.6521    2.0350 CT        1 <0>        0.13829
      8 O1          2.7244    1.5597    1.1457 OS        1 <0>       -0.42148
      9 H1          0.0462   -0.0483    0.0327 HC        1 <0>        0.03607
     10 H2          1.5657   -0.7163    0.6529 HC        1 <0>        0.03607
     11 H3          0.9340   -1.2452   -0.9165 HC        1 <0>        0.03607
     12 H4          0.1076    1.5654   -2.0043 HC        1 <0>        0.03607
     13 H5          0.9803    0.3150   -2.9009 HC        1 <0>        0.03607
     14 H6          1.6660    1.9434   -2.7588 HC        1 <0>        0.03607
     15 H7          1.4143    1.9922    3.4634 HC        1 <0>        0.04282
     16 H8          1.7444    3.7395    3.4932 HC        1 <0>        0.04282
     17 H9          0.7850    3.0599    2.1871 HC        1 <0>        0.04282
     18 H10         3.9431    1.4863    3.5510 HC        1 <0>        0.04282
     19 H11         4.3085    3.2266    3.5820 HC        1 <0>        0.04282
     20 H12         5.0172    2.2130    2.3334 HC        1 <0>        0.04282
     21 H13         2.5635    2.7424   -0.5149 H1        1 <0>        0.02406
     22 H14         1.0314    2.3549    0.3013 H1        1 <0>        0.02406
     23 H15         2.8097    0.3560   -1.2057 HC        1 <0>        0.05994
     24 H16         3.1109    3.5401    1.4262 H1        1 <0>        0.03266
@<TRIPOS>BOND
     1    1    6 1
     2    2    6 1
     3    3    7 1
     4    4    7 1
     5    5    6 1
     6    5    8 1
     7    7    8 1
     8    1    9 1
     9    1   10 1
    10    1   11 1
    11    2   12 1
    12    2   13 1
    13    2   14 1
    14    3   15 1
    15    3   16 1
    16    3   17 1
    17    4   18 1
    18    4   19 1
    19    4   20 1
    20    5   21 1
    21    5   22 1
    22    6   23 1
    23    7   24 1
@<TRIPOS>SUBSTRUCTURE
     1 <0>         1 GROUP 0 A     ****
