@<TRIPOS>MOLECULE
AlkEthOH_c1178
   28    27     1     0     0
SMALL
USER_CHARGES

@<TRIPOS>ATOM
      1 C1         -1.9122    0.0591   -5.1154 CT        1 <0>       -0.09606
      2 C2         -1.7562   -2.1655    0.6235 CT        1 <0>       -0.12234
      3 C3         -0.5833   -2.8973   -1.4641 CT        1 <0>       -0.12234
      4 C4         -3.4862   -1.7616   -1.9060 CT        1 <0>       -0.11997
      5 C5         -2.6891    0.4050   -0.9365 CT        1 <0>       -0.11997
      6 C6         -2.6061   -0.2785   -3.8130 CT        1 <0>        0.12853
      7 C7         -1.1921   -1.6962   -0.7274 CT        1 <0>        0.16342
      8 C8         -2.2445   -0.9158   -1.5800 CT        1 <0>        0.17241
      9 O1         -0.1155   -0.7914   -0.4312 OH        1 <0>       -0.58923
     10 O2         -1.6290   -0.5880   -2.8368 OS        1 <0>       -0.41242
     11 H1         -1.2539    0.9238   -4.9941 HC        1 <0>        0.04348
     12 H2         -1.3184   -0.7907   -5.4679 HC        1 <0>        0.04348
     13 H3         -2.6460    0.2807   -5.8973 HC        1 <0>        0.04348
     14 H4         -2.2011   -1.3345    1.1816 HC        1 <0>        0.04452
     15 H5         -2.5075   -2.9518    0.5057 HC        1 <0>        0.04452
     16 H6         -0.9561   -2.5601    1.2616 HC        1 <0>        0.04452
     17 H7         -0.1658   -2.6175   -2.4355 HC        1 <0>        0.04452
     18 H8          0.1983   -3.3796   -0.8685 HC        1 <0>        0.04452
     19 H9         -1.3425   -3.6696   -1.6371 HC        1 <0>        0.04452
     20 H10        -3.2238   -2.7175   -2.3685 HC        1 <0>        0.04613
     21 H11        -4.0588   -1.9764   -0.9957 HC        1 <0>        0.04613
     22 H12        -4.1719   -1.2255   -2.5710 HC        1 <0>        0.04613
     23 H13        -1.8323    1.0391   -0.6879 HC        1 <0>        0.04613
     24 H14        -3.2971    0.9905   -1.6368 HC        1 <0>        0.04613
     25 H15        -3.2842    0.2444   -0.0330 HC        1 <0>        0.04613
     26 H16        -3.2628   -1.1441   -3.9411 H1        1 <0>        0.02323
     27 H17        -3.1982    0.5718   -3.4617 H1        1 <0>        0.02323
     28 H18         0.5260   -1.3023    0.0799 HO        1 <0>        0.39717
@<TRIPOS>BOND
     1    1    6 1
     2    2    7 1
     3    3    7 1
     4    4    8 1
     5    5    8 1
     6    6   10 1
     7    7    8 1
     8    7    9 1
     9    8   10 1
    10    1   11 1
    11    1   12 1
    12    1   13 1
    13    2   14 1
    14    2   15 1
    15    2   16 1
    16    3   17 1
    17    3   18 1
    18    3   19 1
    19    4   20 1
    20    4   21 1
    21    4   22 1
    22    5   23 1
    23    5   24 1
    24    5   25 1
    25    6   26 1
    26    6   27 1
    27    9   28 1
@<TRIPOS>SUBSTRUCTURE
     1 <0>         1 GROUP 0 A     ****
