@<TRIPOS>MOLECULE
AlkEthOH_c393
   33    32     1     0     0
SMALL
USER_CHARGES

@<TRIPOS>ATOM
      1 C1         -3.0790   -1.8970    0.4441 CT        1 <0>       -0.09135
      2 C2         -3.8493    0.0116    1.8581 CT        1 <0>       -0.09135
      3 C3          1.7174   -0.6546    1.4072 CT        1 <0>       -0.09135
      4 C4          2.6173    1.6057    0.8441 CT        1 <0>       -0.09135
      5 C5         -1.4626    0.1047   -1.8214 CT        1 <0>       -0.12710
      6 C6         -1.5623    0.0909    0.6821 CT        1 <0>       -0.08184
      7 C7          0.6562    0.6092   -0.4873 CT        1 <0>       -0.08184
      8 C8         -3.0361   -0.3744    0.6231 CT        1 <0>       -0.06545
      9 C9          1.3568    0.7420    0.8857 CT        1 <0>       -0.06545
     10 C10        -0.6600   -0.2027   -0.5484 CT        1 <0>        0.15770
     11 O1         -0.3478   -1.5955   -0.5669 OH        1 <0>       -0.60406
     12 H1         -2.6112   -2.4030    1.2953 HC        1 <0>        0.03468
     13 H2         -2.5373   -2.1987   -0.4587 HC        1 <0>        0.03468
     14 H3         -4.1093   -2.2585    0.3580 HC        1 <0>        0.03468
     15 H4         -3.4114   -0.4024    2.7706 HC        1 <0>        0.03468
     16 H5         -4.8836   -0.3396    1.7794 HC        1 <0>        0.03468
     17 H6         -3.8725    1.0996    1.9841 HC        1 <0>        0.03468
     18 H7          2.4176   -1.1618    0.7346 HC        1 <0>        0.03468
     19 H8          2.1825   -0.5930    2.3969 HC        1 <0>        0.03468
     20 H9          0.8224   -1.2790    1.5002 HC        1 <0>        0.03468
     21 H10         3.3500    1.2064    0.1350 HC        1 <0>        0.03468
     22 H11         3.0924    1.6480    1.8304 HC        1 <0>        0.03468
     23 H12         2.3874    2.6361    0.5596 HC        1 <0>        0.03468
     24 H13        -0.8601   -0.0900   -2.7167 HC        1 <0>        0.04282
     25 H14        -1.7414    1.1619   -1.8778 HC        1 <0>        0.04282
     26 H15        -2.3704   -0.5044   -1.8814 HC        1 <0>        0.04282
     27 H16        -1.5593    1.1743    0.8675 HC        1 <0>        0.05080
     28 H17        -1.1001   -0.3755    1.5631 HC        1 <0>        0.05080
     29 H18         0.4627    1.6265   -0.8517 HC        1 <0>        0.05080
     30 H19         1.3720    0.1529   -1.1846 HC        1 <0>        0.05080
     31 H20        -3.5176    0.0649   -0.2584 HC        1 <0>        0.04372
     32 H21         0.6583    1.1822    1.6070 HC        1 <0>        0.04372
     33 H22        -1.1949   -2.0659   -0.5829 HO        1 <0>        0.39818
@<TRIPOS>BOND
     1    1    8 1
     2    2    8 1
     3    3    9 1
     4    4    9 1
     5    5   10 1
     6    6    8 1
     7    6   10 1
     8    7    9 1
     9    7   10 1
    10   10   11 1
    11    1   12 1
    12    1   13 1
    13    1   14 1
    14    2   15 1
    15    2   16 1
    16    2   17 1
    17    3   18 1
    18    3   19 1
    19    3   20 1
    20    4   21 1
    21    4   22 1
    22    4   23 1
    23    5   24 1
    24    5   25 1
    25    5   26 1
    26    6   27 1
    27    6   28 1
    28    7   29 1
    29    7   30 1
    30    8   31 1
    31    9   32 1
    32   11   33 1
@<TRIPOS>SUBSTRUCTURE
     1 <0>         1 GROUP 0 A     ****
