@<TRIPOS>MOLECULE
AlkEthOH_c934
   28    27     1     0     0
SMALL
USER_CHARGES

@<TRIPOS>ATOM
      1 C1         -1.3373    2.2412   -0.4859 CT        1 <0>       -0.08739
      2 C2         -2.1689   -0.4444   -1.7717 CT        1 <0>       -0.10083
      3 C3         -4.0814    0.9472   -0.9518 CT        1 <0>       -0.10083
      4 C4         -2.4352   -3.2556    0.2436 CT        1 <0>       -0.13131
      5 C5         -2.2954   -1.7763    2.2500 CT        1 <0>       -0.13131
      6 C6         -1.8896    1.0450    0.2809 CT        1 <0>       -0.10178
      7 C7         -2.8429    0.1483   -0.5334 CT        1 <0>        0.18920
      8 C8         -2.2365   -1.8157    0.7225 CT        1 <0>        0.36281
      9 O1         -0.9373   -1.3481    0.3587 OH        1 <0>       -0.62199
     10 O2         -3.2783   -0.9433    0.2800 OS        1 <0>       -0.43953
     11 H1         -0.8282    1.8994   -1.3931 HC        1 <0>        0.03134
     12 H2         -0.6079    2.7970    0.1102 HC        1 <0>        0.03134
     13 H3         -2.1352    2.9265   -0.7878 HC        1 <0>        0.03134
     14 H4         -1.2780   -1.0231   -1.5075 HC        1 <0>        0.04357
     15 H5         -2.8545   -1.0891   -2.3317 HC        1 <0>        0.04357
     16 H6         -1.8702    0.3487   -2.4675 HC        1 <0>        0.04357
     17 H7         -4.5890    1.3863   -0.0869 HC        1 <0>        0.04357
     18 H8         -3.8108    1.7535   -1.6432 HC        1 <0>        0.04357
     19 H9         -4.7957    0.3107   -1.4865 HC        1 <0>        0.04357
     20 H10        -2.3980   -3.3159   -0.8496 HC        1 <0>        0.04801
     21 H11        -1.6782   -3.9236    0.6672 HC        1 <0>        0.04801
     22 H12        -3.4173   -3.6404    0.5386 HC        1 <0>        0.04801
     23 H13        -2.1547   -0.7508    2.6122 HC        1 <0>        0.04801
     24 H14        -1.5038   -2.3869    2.6979 HC        1 <0>        0.04801
     25 H15        -3.2671   -2.1191    2.6214 HC        1 <0>        0.04801
     26 H16        -2.3953    1.4055    1.1851 HC        1 <0>        0.05389
     27 H17        -1.0305    0.4468    0.6116 HC        1 <0>        0.05389
     28 H18        -0.2774   -1.9262    0.7770 HO        1 <0>        0.41168
@<TRIPOS>BOND
     1    1    6 1
     2    2    7 1
     3    3    7 1
     4    4    8 1
     5    5    8 1
     6    6    7 1
     7    7   10 1
     8    8    9 1
     9    8   10 1
    10    1   11 1
    11    1   12 1
    12    1   13 1
    13    2   14 1
    14    2   15 1
    15    2   16 1
    16    3   17 1
    17    3   18 1
    18    3   19 1
    19    4   20 1
    20    4   21 1
    21    4   22 1
    22    5   23 1
    23    5   24 1
    24    5   25 1
    25    6   26 1
    26    6   27 1
    27    9   28 1
@<TRIPOS>SUBSTRUCTURE
     1 <0>         1 GROUP 0 A     ****
