@<TRIPOS>MOLECULE
AlkEthOH_c1248
   26    25     1     0     0
SMALL
USER_CHARGES

@<TRIPOS>ATOM
      1 C1         -3.9321    0.4835    0.9278 CT        1 <0>       -0.10048
      2 C2          1.6912   -1.5070   -1.5259 CT        1 <0>       -0.12726
      3 C3          1.1437   -1.2682    0.9100 CT        1 <0>       -0.12726
      4 C4          0.5406    0.5838   -0.7436 CT        1 <0>       -0.09825
      5 C5         -2.5610    1.0766    1.1729 CT        1 <0>        0.13947
      6 C6         -0.4124    1.3225    0.2087 CT        1 <0>        0.33572
      7 C7          0.6918   -0.9356   -0.5134 CT        1 <0>        0.15605
      8 O1         -0.3561    2.7062   -0.1387 OH        1 <0>       -0.62981
      9 O2         -0.5677   -1.5679   -0.7475 OH        1 <0>       -0.58485
     10 O3         -1.7288    0.7951    0.0563 OS        1 <0>       -0.43953
     11 H1         -4.3900    0.9155    0.0336 HC        1 <0>        0.04420
     12 H2         -3.8662   -0.6022    0.8020 HC        1 <0>        0.04420
     13 H3         -4.5898    0.6653    1.7844 HC        1 <0>        0.04420
     14 H4          1.3940   -1.2845   -2.5559 HC        1 <0>        0.04450
     15 H5          1.7791   -2.5938   -1.4154 HC        1 <0>        0.04450
     16 H6          2.6949   -1.0988   -1.3602 HC        1 <0>        0.04450
     17 H7          0.4455   -0.8705    1.6541 HC        1 <0>        0.04450
     18 H8          2.1440   -0.8747    1.1168 HC        1 <0>        0.04450
     19 H9          1.1623   -2.3528    1.0686 HC        1 <0>        0.04450
     20 H10         0.1735    0.7435   -1.7676 HC        1 <0>        0.06984
     21 H11         1.5257    1.0666   -0.6939 HC        1 <0>        0.06984
     22 H12        -2.1087    0.6404    2.0685 H1        1 <0>        0.02929
     23 H13        -2.6286    2.1614    1.2975 H1        1 <0>        0.02929
     24 H14        -0.0659    1.2104    1.2426 H2        1 <0>        0.07408
     25 H15         0.5648    2.9952   -0.0229 HO        1 <0>        0.40859
     26 H16        -0.4248   -2.5172   -0.6172 HO        1 <0>        0.39567
@<TRIPOS>BOND
     1    1    5 1
     2    2    7 1
     3    3    7 1
     4    4    6 1
     5    4    7 1
     6    5   10 1
     7    6    8 1
     8    6   10 1
     9    7    9 1
    10    1   11 1
    11    1   12 1
    12    1   13 1
    13    2   14 1
    14    2   15 1
    15    2   16 1
    16    3   17 1
    17    3   18 1
    18    3   19 1
    19    4   20 1
    20    4   21 1
    21    5   22 1
    22    5   23 1
    23    6   24 1
    24    8   25 1
    25    9   26 1
@<TRIPOS>SUBSTRUCTURE
     1 <0>         1 GROUP 0 A     ****
