@<TRIPOS>MOLECULE
AlkEthOH_c177
   27    26     1     0     0
SMALL
USER_CHARGES

@<TRIPOS>ATOM
      1 C1          0.7829   -1.8305    1.5864 CT        1 <0>       -0.10797
      2 C2         -0.3383    0.3643    1.1017 CT        1 <0>       -0.10784
      3 C3          1.8928    0.3274    2.2543 CT        1 <0>       -0.10784
      4 C4          2.1400   -0.9669    3.9655 CT        1 <0>       -0.10784
      5 C5          0.3385   -0.5483    5.6651 CT        1 <0>       -0.10784
      6 C6          0.2665   -2.6230    4.2515 CT        1 <0>       -0.10784
      7 C7          0.5609   -0.3988    2.0719 CT        1 <0>        0.15967
      8 C8          0.6594   -1.1471    4.2974 CT        1 <0>        0.15967
      9 O1         -0.1082   -0.4451    3.3327 OS        1 <0>       -0.42385
     10 H1          1.4279   -2.3816    2.2801 HC        1 <0>        0.04176
     11 H2         -0.1625   -2.3732    1.4849 HC        1 <0>        0.04176
     12 H3          1.2931   -1.8397    0.6164 HC        1 <0>        0.04176
     13 H4         -0.5004    1.3921    1.4461 HC        1 <0>        0.04176
     14 H5         -1.3291   -0.1004    1.0401 HC        1 <0>        0.04176
     15 H6          0.0912    0.3996    0.0953 HC        1 <0>        0.04176
     16 H7          1.7338    1.3544    2.6026 HC        1 <0>        0.04176
     17 H8          2.5368   -0.1862    2.9755 HC        1 <0>        0.04176
     18 H9          2.4289    0.4036    1.3014 HC        1 <0>        0.04176
     19 H10         2.3744   -1.3954    2.9845 HC        1 <0>        0.04176
     20 H11         2.4266    0.0898    3.9608 HC        1 <0>        0.04176
     21 H12         2.7704   -1.4932    4.6914 HC        1 <0>        0.04176
     22 H13        -0.7228   -0.6753    5.9074 HC        1 <0>        0.04176
     23 H14         0.5299    0.5309    5.6733 HC        1 <0>        0.04176
     24 H15         0.9332   -1.0119    6.4588 HC        1 <0>        0.04176
     25 H16        -0.7954   -2.7526    4.4895 HC        1 <0>        0.04176
     26 H17         0.4556   -3.0602    3.2657 HC        1 <0>        0.04176
     27 H18         0.8236   -3.1980    5.0000 HC        1 <0>        0.04176
@<TRIPOS>BOND
     1    1    7 1
     2    2    7 1
     3    3    7 1
     4    4    8 1
     5    5    8 1
     6    6    8 1
     7    7    9 1
     8    8    9 1
     9    1   10 1
    10    1   11 1
    11    1   12 1
    12    2   13 1
    13    2   14 1
    14    2   15 1
    15    3   16 1
    16    3   17 1
    17    3   18 1
    18    4   19 1
    19    4   20 1
    20    4   21 1
    21    5   22 1
    22    5   23 1
    23    5   24 1
    24    6   25 1
    25    6   26 1
    26    6   27 1
@<TRIPOS>SUBSTRUCTURE
     1 <0>         1 GROUP 0 A     ****
