@<TRIPOS>MOLECULE
AlkEthOH_c1246
   20    19     1     0     0
SMALL
USER_CHARGES

@<TRIPOS>ATOM
      1 C1          0.8854    2.7365   -2.4460 CT        1 <0>       -0.09789
      2 C2          1.6009   -0.3333    1.0852 CT        1 <0>       -0.11812
      3 C3          0.3353    1.4757   -1.8142 CT        1 <0>        0.13344
      4 C4         -1.4098   -0.8629    1.1248 CT        1 <0>        0.33424
      5 C5          0.5254    0.0700    0.0846 CT        1 <0>        0.33758
      6 O1         -1.8705   -1.5692   -0.0186 OH        1 <0>       -0.63680
      7 O2          0.9959    1.2523   -0.5753 OS        1 <0>       -0.41324
      8 O3         -0.6935    0.3204    0.7877 OS        1 <0>       -0.44435
      9 H1          0.7170    3.6024   -1.7997 HC        1 <0>        0.04367
     10 H2          1.9599    2.6379   -2.6322 HC        1 <0>        0.04367
     11 H3          0.4102    2.9214   -3.4152 HC        1 <0>        0.04367
     12 H4          1.7361    0.4503    1.8396 HC        1 <0>        0.05205
     13 H5          2.5645   -0.4757    0.5856 HC        1 <0>        0.05205
     14 H6          1.3343   -1.2527    1.6145 HC        1 <0>        0.05205
     15 H7          0.5070    0.6136   -2.4656 H1        1 <0>        0.03509
     16 H8         -0.7382    1.5762   -1.6281 H1        1 <0>        0.03509
     17 H9         -0.8211   -1.5272    1.7666 H2        1 <0>        0.03916
     18 H10        -2.2938   -0.5538    1.6898 H2        1 <0>        0.03916
     19 H11         0.4036   -0.7248   -0.6620 H2        1 <0>        0.05611
     20 H12        -2.3447   -2.3562    0.2987 HO        1 <0>        0.41337
@<TRIPOS>BOND
     1    1    3 1
     2    2    5 1
     3    3    7 1
     4    4    6 1
     5    4    8 1
     6    5    7 1
     7    5    8 1
     8    1    9 1
     9    1   10 1
    10    1   11 1
    11    2   12 1
    12    2   13 1
    13    2   14 1
    14    3   15 1
    15    3   16 1
    16    4   17 1
    17    4   18 1
    18    5   19 1
    19    6   20 1
@<TRIPOS>SUBSTRUCTURE
     1 <0>         1 GROUP 0 A     ****
