@<TRIPOS>MOLECULE
AlkEthOH_c285
   27    26     1     0     0
SMALL
USER_CHARGES

@<TRIPOS>ATOM
      1 C1          1.0507   -1.2098   -1.3532 CT        1 <0>       -0.09013
      2 C2         -0.3262   -2.0426    0.5467 CT        1 <0>       -0.09013
      3 C3         -1.3350    0.7833    1.0734 CT        1 <0>       -0.08863
      4 C4          1.1556    0.6610    1.1704 CT        1 <0>       -0.08863
      5 C5         -0.9935    2.7748   -2.6182 CT        1 <0>        0.11593
      6 C6          0.0475    1.6612   -0.8296 CT        1 <0>        0.12970
      7 C7         -0.1464   -0.8845   -0.4473 CT        1 <0>       -0.05553
      8 C8         -0.0615    0.5330    0.2315 CT        1 <0>       -0.04173
      9 O1         -1.0820    1.7007   -1.6919 OS        1 <0>       -0.41893
     10 H1          1.9905   -1.2247   -0.7944 HC        1 <0>        0.03270
     11 H2          0.9306   -2.1743   -1.8555 HC        1 <0>        0.03270
     12 H3          1.1599   -0.4463   -2.1319 HC        1 <0>        0.03270
     13 H4          0.5175   -2.1201    1.2389 HC        1 <0>        0.03270
     14 H5         -0.3974   -2.9965    0.0115 HC        1 <0>        0.03270
     15 H6         -1.2456   -1.9396    1.1293 HC        1 <0>        0.03270
     16 H7         -2.2440    0.7078    0.4675 HC        1 <0>        0.03705
     17 H8         -1.4284    0.0431    1.8767 HC        1 <0>        0.03705
     18 H9         -1.3232    1.7761    1.5360 HC        1 <0>        0.03705
     19 H10         2.0976    0.4950    0.6384 HC        1 <0>        0.03705
     20 H11         1.1064   -0.0492    2.0018 HC        1 <0>        0.03705
     21 H12         1.2053    1.6648    1.6093 HC        1 <0>        0.03705
     22 H13        -1.8758    2.7744   -3.2629 H1        1 <0>        0.03137
     23 H14        -0.0886    2.6637   -3.2209 H1        1 <0>        0.03137
     24 H15        -0.9484    3.7169   -2.0668 H1        1 <0>        0.03137
     25 H16         0.9365    1.5303   -1.4550 H1        1 <0>        0.02572
     26 H17         0.1445    2.6446   -0.3543 H1        1 <0>        0.02572
     27 H18        -1.0370   -0.8921   -1.0911 HC        1 <0>        0.06403
@<TRIPOS>BOND
     1    1    7 1
     2    2    7 1
     3    3    8 1
     4    4    8 1
     5    5    9 1
     6    6    8 1
     7    6    9 1
     8    7    8 1
     9    1   10 1
    10    1   11 1
    11    1   12 1
    12    2   13 1
    13    2   14 1
    14    2   15 1
    15    3   16 1
    16    3   17 1
    17    3   18 1
    18    4   19 1
    19    4   20 1
    20    4   21 1
    21    5   22 1
    22    5   23 1
    23    5   24 1
    24    6   25 1
    25    6   26 1
    26    7   27 1
@<TRIPOS>SUBSTRUCTURE
     1 <0>         1 GROUP 0 A     ****
