@<TRIPOS>MOLECULE
AlkEthOH_c787
   22    21     1     0     0
SMALL
USER_CHARGES

@<TRIPOS>ATOM
      1 C1          0.5464    0.1116   -0.9430 CT        1 <0>       -0.09247
      2 C2          3.1048   -0.0380   -2.6474 CT        1 <0>       -0.12815
      3 C3         -0.1159   -4.6319   -1.6902 CT        1 <0>        0.11765
      4 C4          0.1936   -2.3259   -1.3596 CT        1 <0>        0.12807
      5 C5          1.2403   -1.2002   -1.3237 CT        1 <0>       -0.05529
      6 C6          2.0155   -1.1053   -2.6590 CT        1 <0>        0.14198
      7 O1          1.1112   -0.8280   -3.7260 OH        1 <0>       -0.60468
      8 O2          0.8154   -3.5585   -1.6985 OS        1 <0>       -0.42709
      9 H1         -0.1933    0.4039   -1.6942 HC        1 <0>        0.04030
     10 H2          1.2741    0.9277   -0.8746 HC        1 <0>        0.04030
     11 H3          0.0399    0.0336    0.0246 HC        1 <0>        0.04030
     12 H4          2.6950    0.9553   -2.4382 HC        1 <0>        0.04161
     13 H5          3.8818   -0.2685   -1.9127 HC        1 <0>        0.04161
     14 H6          3.5747    0.0297   -3.6352 HC        1 <0>        0.04161
     15 H7          0.3953   -5.5609   -1.9544 H1        1 <0>        0.03166
     16 H8         -0.9157   -4.4272   -2.4064 H1        1 <0>        0.03166
     17 H9         -0.5418   -4.7253   -0.6884 H1        1 <0>        0.03166
     18 H10        -0.5932   -2.1183   -2.0925 H1        1 <0>        0.03490
     19 H11        -0.2736   -2.4455   -0.3761 H1        1 <0>        0.03490
     20 H12         1.9690   -1.4458   -0.5395 HC        1 <0>        0.06082
     21 H13         2.4862   -2.0719   -2.8726 H1        1 <0>        0.05089
     22 H14         1.6334   -0.8504   -4.5426 HO        1 <0>        0.39776
@<TRIPOS>BOND
     1    1    5 1
     2    2    6 1
     3    3    8 1
     4    4    5 1
     5    4    8 1
     6    5    6 1
     7    6    7 1
     8    1    9 1
     9    1   10 1
    10    1   11 1
    11    2   12 1
    12    2   13 1
    13    2   14 1
    14    3   15 1
    15    3   16 1
    16    3   17 1
    17    4   18 1
    18    4   19 1
    19    5   20 1
    20    6   21 1
    21    7   22 1
@<TRIPOS>SUBSTRUCTURE
     1 <0>         1 GROUP 0 A     ****
