@<TRIPOS>MOLECULE
AlkEthOH_c36
   16    15     1     0     0
SMALL
USER_CHARGES

@<TRIPOS>ATOM
      1 C1          0.6521   -1.9419   -0.4888 CT        1 <0>        0.33129
      2 C2          0.0886    2.2652    0.2694 CT        1 <0>        0.33129
      3 C3         -0.5474   -0.0483    0.3302 CT        1 <0>        0.51776
      4 O1          0.9913   -2.6909    0.6693 OH        1 <0>       -0.61329
      5 O2          1.4792    2.2317   -0.0162 OH        1 <0>       -0.61329
      6 O3         -1.6093    0.0818   -0.6154 OH        1 <0>       -0.64632
      7 O4          0.6596   -0.5356   -0.2639 OS        1 <0>       -0.47193
      8 O5         -0.3430    1.1669    1.0678 OS        1 <0>       -0.47193
      9 H1          1.4171   -2.1502   -1.2422 H2        1 <0>        0.06822
     10 H2         -0.3088   -2.2813   -0.8913 H2        1 <0>        0.06822
     11 H3         -0.1278    3.1877    0.8173 H2        1 <0>        0.06822
     12 H4         -0.4669    2.3050   -0.6729 H2        1 <0>        0.06822
     13 H5         -0.8708   -0.7723    1.0868 H3        1 <0>        0.10490
     14 H6          0.9609   -3.6312    0.4246 HO        1 <0>        0.41653
     15 H7          1.6794    3.0122   -0.5601 HO        1 <0>        0.41653
     16 H8         -2.3876    0.4153   -0.1377 HO        1 <0>        0.42558
@<TRIPOS>BOND
     1    1    4 1
     2    1    7 1
     3    2    5 1
     4    2    8 1
     5    3    6 1
     6    3    7 1
     7    3    8 1
     8    1    9 1
     9    1   10 1
    10    2   11 1
    11    2   12 1
    12    3   13 1
    13    4   14 1
    14    5   15 1
    15    6   16 1
@<TRIPOS>SUBSTRUCTURE
     1 <0>         1 GROUP 0 A     ****
