@<TRIPOS>MOLECULE
AlkEthOH_c563
   31    30     1     0     0
SMALL
USER_CHARGES

@<TRIPOS>ATOM
      1 C1          1.6689    1.2055    3.7456 CT        1 <0>       -0.10707
      2 C2         -0.7564    0.5519    3.5390 CT        1 <0>       -0.10707
      3 C3          0.0443    0.1689   -2.6833 CT        1 <0>       -0.08850
      4 C4         -1.7490   -0.1064   -0.9667 CT        1 <0>       -0.08850
      5 C5         -0.0233    1.6904   -0.7083 CT        1 <0>       -0.08850
      6 C6          0.6552   -0.7726   -0.4463 CT        1 <0>       -0.09828
      7 C7          0.6727    0.2400    3.1217 CT        1 <0>        0.14103
      8 C8          0.4783   -0.9282    1.0711 CT        1 <0>        0.34048
      9 C9         -0.2664    0.2463   -1.1739 CT        1 <0>       -0.04594
     10 O1          1.3869   -1.9484    1.4891 OH        1 <0>       -0.63559
     11 O2          0.7735    0.3138    1.7063 OS        1 <0>       -0.41571
     12 H1          1.4445    2.2405    3.4704 HC        1 <0>        0.04165
     13 H2          1.6484    1.1213    4.8375 HC        1 <0>        0.04165
     14 H3          2.6926    0.9734    3.4318 HC        1 <0>        0.04165
     15 H4         -1.0386    1.5713    3.2589 HC        1 <0>        0.04165
     16 H5         -0.8693    0.4427    4.6230 HC        1 <0>        0.04165
     17 H6         -1.4631   -0.1466    3.0774 HC        1 <0>        0.04165
     18 H7          1.0931    0.4125   -2.8875 HC        1 <0>        0.03670
     19 H8         -0.1452   -0.8370   -3.0746 HC        1 <0>        0.03670
     20 H9         -0.5751    0.8717   -3.2520 HC        1 <0>        0.03670
     21 H10        -2.0206   -0.0654    0.0939 HC        1 <0>        0.03670
     22 H11        -1.9669   -1.1188   -1.3263 HC        1 <0>        0.03670
     23 H12        -2.4089    0.5771   -1.5107 HC        1 <0>        0.03670
     24 H13        -0.2267    1.8141    0.3598 HC        1 <0>        0.03670
     25 H14         1.0101    1.9993   -0.8991 HC        1 <0>        0.03670
     26 H15        -0.6806    2.3901   -1.2376 HC        1 <0>        0.03670
     27 H16         1.7022   -0.5005   -0.6425 HC        1 <0>        0.05319
     28 H17         0.5196   -1.7607   -0.9086 HC        1 <0>        0.05319
     29 H18         0.9238   -0.7845    3.4153 H1        1 <0>        0.06403
     30 H19        -0.5406   -1.2556    1.3044 H2        1 <0>        0.03306
     31 H20         1.1468   -2.7605    1.0118 HO        1 <0>        0.40998
@<TRIPOS>BOND
     1    1    7 1
     2    2    7 1
     3    3    9 1
     4    4    9 1
     5    5    9 1
     6    6    8 1
     7    6    9 1
     8    7   11 1
     9    8   10 1
    10    8   11 1
    11    1   12 1
    12    1   13 1
    13    1   14 1
    14    2   15 1
    15    2   16 1
    16    2   17 1
    17    3   18 1
    18    3   19 1
    19    3   20 1
    20    4   21 1
    21    4   22 1
    22    4   23 1
    23    5   24 1
    24    5   25 1
    25    5   26 1
    26    6   27 1
    27    6   28 1
    28    7   29 1
    29    8   30 1
    30   10   31 1
@<TRIPOS>SUBSTRUCTURE
     1 <0>         1 GROUP 0 A     ****
