@<TRIPOS>MOLECULE
AlkEthOH_c1096
   24    23     1     0     0
SMALL
USER_CHARGES

@<TRIPOS>ATOM
      1 C1         -0.4474    0.8277   -0.8199 CT        1 <0>       -0.09112
      2 C2         -0.1643    0.3927   -7.0921 CT        1 <0>       -0.09629
      3 C3         -0.6714   -2.8371   -4.2817 CT        1 <0>       -0.12174
      4 C4          0.0366    0.3647   -2.1852 CT        1 <0>       -0.08035
      5 C5         -0.5207   -1.0174   -2.5371 CT        1 <0>       -0.07472
      6 C6          0.3112   -0.6336   -6.0860 CT        1 <0>        0.12949
      7 C7         -0.0767   -1.4806   -3.9284 CT        1 <0>        0.13990
      8 O1         -0.4824   -0.5335   -4.9130 OS        1 <0>       -0.42121
      9 H1         -0.1532    0.1080   -0.0495 HC        1 <0>        0.03189
     10 H2         -1.5380    0.9192   -0.8004 HC        1 <0>        0.03189
     11 H3         -0.0159    1.7995   -0.5597 HC        1 <0>        0.03189
     12 H4         -1.2097    0.2192   -7.3622 HC        1 <0>        0.04401
     13 H5         -0.0673    1.4050   -6.6861 HC        1 <0>        0.04401
     14 H6          0.4463    0.3543   -8.0003 HC        1 <0>        0.04401
     15 H7         -1.7663   -2.8070   -4.2517 HC        1 <0>        0.04140
     16 H8         -0.3926   -3.1214   -5.3021 HC        1 <0>        0.04140
     17 H9         -0.3234   -3.6149   -3.5951 HC        1 <0>        0.04140
     18 H10        -0.2689    1.0993   -2.9388 HC        1 <0>        0.04526
     19 H11         1.1324    0.3343   -2.1862 HC        1 <0>        0.04526
     20 H12        -0.1919   -1.7458   -1.7860 HC        1 <0>        0.04706
     21 H13        -1.6164   -0.9734   -2.4955 HC        1 <0>        0.04706
     22 H14         1.3572   -0.4545   -5.8201 H1        1 <0>        0.02277
     23 H15         0.2128   -1.6445   -6.4929 H1        1 <0>        0.02277
     24 H16         1.0160   -1.5470   -3.9681 H1        1 <0>        0.03396
@<TRIPOS>BOND
     1    1    4 1
     2    2    6 1
     3    3    7 1
     4    4    5 1
     5    5    7 1
     6    6    8 1
     7    7    8 1
     8    1    9 1
     9    1   10 1
    10    1   11 1
    11    2   12 1
    12    2   13 1
    13    2   14 1
    14    3   15 1
    15    3   16 1
    16    3   17 1
    17    4   18 1
    18    4   19 1
    19    5   20 1
    20    5   21 1
    21    6   22 1
    22    6   23 1
    23    7   24 1
@<TRIPOS>SUBSTRUCTURE
     1 <0>         1 GROUP 0 A     ****
