@<TRIPOS>MOLECULE
AlkEthOH_c339
   25    24     1     0     0
SMALL
USER_CHARGES

@<TRIPOS>ATOM
      1 C1         -0.6239   -0.3633   -0.6067 CT        1 <0>       -0.08996
      2 C2         -0.2496    0.8576   -2.7535 CT        1 <0>       -0.08996
      3 C3          2.5634   -2.8341   -5.5718 CT        1 <0>       -0.13192
      4 C4          1.2818   -1.5495   -3.8193 CT        1 <0>       -0.10531
      5 C5         -0.3245   -0.5263   -2.1013 CT        1 <0>       -0.09874
      6 C6          2.2363   -2.7236   -4.0877 CT        1 <0>        0.14199
      7 C7          0.9515   -1.3731   -2.3253 CT        1 <0>        0.15071
      8 O1          3.4504   -2.5316   -3.3688 OH        1 <0>       -0.58879
      9 O2          2.0685   -0.7732   -1.6737 OH        1 <0>       -0.58035
     10 H1          0.1922    0.1703   -0.1073 HC        1 <0>        0.03617
     11 H2         -0.7425   -1.3302   -0.1071 HC        1 <0>        0.03617
     12 H3         -1.5406    0.2160   -0.4540 HC        1 <0>        0.03617
     13 H4          0.5856    1.4335   -2.3400 HC        1 <0>        0.03617
     14 H5         -1.1613    1.4339   -2.5702 HC        1 <0>        0.03617
     15 H6         -0.1018    0.7861   -3.8361 HC        1 <0>        0.03617
     16 H7          3.0192   -1.9062   -5.9340 HC        1 <0>        0.04257
     17 H8          1.6541   -2.9893   -6.1628 HC        1 <0>        0.04257
     18 H9          3.2551   -3.6592   -5.7669 HC        1 <0>        0.04257
     19 H10         0.3525   -1.7121   -4.3782 HC        1 <0>        0.05336
     20 H11         1.7536   -0.6324   -4.1935 HC        1 <0>        0.05336
     21 H12        -1.1722   -1.0645   -2.5450 HC        1 <0>        0.04569
     22 H13         1.7819   -3.6593   -3.7431 H1        1 <0>        0.03068
     23 H14         0.8025   -2.3656   -1.8821 H1        1 <0>        0.07067
     24 H15         4.0058   -3.3059   -3.5504 HO        1 <0>        0.39673
     25 H16         2.2119    0.0835   -2.1046 HO        1 <0>        0.39711
@<TRIPOS>BOND
     1    1    5 1
     2    2    5 1
     3    3    6 1
     4    4    6 1
     5    4    7 1
     6    5    7 1
     7    6    8 1
     8    7    9 1
     9    1   10 1
    10    1   11 1
    11    1   12 1
    12    2   13 1
    13    2   14 1
    14    2   15 1
    15    3   16 1
    16    3   17 1
    17    3   18 1
    18    4   19 1
    19    4   20 1
    20    5   21 1
    21    6   22 1
    22    7   23 1
    23    8   24 1
    24    9   25 1
@<TRIPOS>SUBSTRUCTURE
     1 <0>         1 GROUP 0 A     ****
