@<TRIPOS>MOLECULE
AlkEthOH_c317
   24    23     1     0     0
SMALL
USER_CHARGES

@<TRIPOS>ATOM
      1 C1         -1.6980   -1.2008    0.4676 CT        1 <0>       -0.08834
      2 C2         -0.3540   -2.0170   -1.4806 CT        1 <0>       -0.08834
      3 C3         -0.3833    1.0726   -1.2509 CT        1 <0>       -0.09357
      4 C4          1.4979    2.0762    0.9771 CT        1 <0>       -0.12948
      5 C5         -0.2976   -1.2577   -0.1491 CT        1 <0>       -0.06462
      6 C6          0.3818    0.1408   -0.3013 CT        1 <0>       -0.05129
      7 C7          0.6325    0.8221    1.0702 CT        1 <0>        0.14136
      8 O1          1.3011   -0.1008    1.9315 OH        1 <0>       -0.60349
      9 H1         -2.3867   -0.6079   -0.1425 HC        1 <0>        0.03179
     10 H2         -1.6765   -0.7747    1.4746 HC        1 <0>        0.03179
     11 H3         -2.1189   -2.2089    0.5529 HC        1 <0>        0.03179
     12 H4         -0.9584   -1.4938   -2.2277 HC        1 <0>        0.03179
     13 H5          0.6507   -2.1645   -1.8903 HC        1 <0>        0.03179
     14 H6         -0.8002   -3.0072   -1.3357 HC        1 <0>        0.03179
     15 H7         -1.3806    1.3067   -0.8655 HC        1 <0>        0.03584
     16 H8          0.1513    2.0175   -1.3895 HC        1 <0>        0.03584
     17 H9         -0.4955    0.6357   -2.2469 HC        1 <0>        0.03584
     18 H10         2.4621    1.8512    0.5083 HC        1 <0>        0.04205
     19 H11         1.7197    2.4641    1.9776 HC        1 <0>        0.04205
     20 H12         1.0066    2.8720    0.4109 HC        1 <0>        0.04205
     21 H13         0.3271   -1.8657    0.5181 HC        1 <0>        0.06968
     22 H14         1.3673   -0.0492   -0.7507 HC        1 <0>        0.05511
     23 H15        -0.3201    1.0852    1.5425 H1        1 <0>        0.03178
     24 H16         1.3891    0.3411    2.7892 HO        1 <0>        0.39679
@<TRIPOS>BOND
     1    1    5 1
     2    2    5 1
     3    3    6 1
     4    4    7 1
     5    5    6 1
     6    6    7 1
     7    7    8 1
     8    1    9 1
     9    1   10 1
    10    1   11 1
    11    2   12 1
    12    2   13 1
    13    2   14 1
    14    3   15 1
    15    3   16 1
    16    3   17 1
    17    4   18 1
    18    4   19 1
    19    4   20 1
    20    5   21 1
    21    6   22 1
    22    7   23 1
    23    8   24 1
@<TRIPOS>SUBSTRUCTURE
     1 <0>         1 GROUP 0 A     ****
