@<TRIPOS>MOLECULE
AlkEthOH_c1118
   20    19     1     0     0
SMALL
USER_CHARGES

@<TRIPOS>ATOM
      1 C1          1.5944   -1.8999   -1.8985 CT        1 <0>       -0.09260
      2 C2          1.1379   -0.6988   -1.0850 CT        1 <0>       -0.07934
      3 C3         -0.2999   -0.8713   -0.5925 CT        1 <0>       -0.07772
      4 C4         -0.0138    1.8150    1.9000 CT        1 <0>        0.31969
      5 C5         -0.7980    0.3408    0.1992 CT        1 <0>        0.33905
      6 O1         -1.2868    2.1407    2.4373 OH        1 <0>       -0.63723
      7 O2         -2.1507    0.0777    0.5613 OH        1 <0>       -0.60905
      8 O3          0.0432    0.5066    1.3409 OS        1 <0>       -0.47116
      9 H1          0.9305   -2.0520   -2.7551 HC        1 <0>        0.03453
     10 H2          1.5813   -2.8117   -1.2929 HC        1 <0>        0.03453
     11 H3          2.6107   -1.7533   -2.2780 HC        1 <0>        0.03453
     12 H4          1.8165   -0.5669   -0.2348 HC        1 <0>        0.04241
     13 H5          1.2129    0.2029   -1.7037 HC        1 <0>        0.04241
     14 H6         -0.3587   -1.7669    0.0400 HC        1 <0>        0.06521
     15 H7         -0.9700   -1.0505   -1.4429 HC        1 <0>        0.06521
     16 H8          0.2975    2.5742    1.1731 H2        1 <0>        0.06245
     17 H9          0.7001    1.8403    2.7283 H2        1 <0>        0.06245
     18 H10        -0.7630    1.2313   -0.4408 H2        1 <0>        0.03507
     19 H11        -1.2282    3.0435    2.7921 HO        1 <0>        0.41593
     20 H12        -2.6519   -0.0430   -0.2625 HO        1 <0>        0.41363
@<TRIPOS>BOND
     1    1    2 1
     2    2    3 1
     3    3    5 1
     4    4    6 1
     5    4    8 1
     6    5    7 1
     7    5    8 1
     8    1    9 1
     9    1   10 1
    10    1   11 1
    11    2   12 1
    12    2   13 1
    13    3   14 1
    14    3   15 1
    15    4   16 1
    16    4   17 1
    17    5   18 1
    18    6   19 1
    19    7   20 1
@<TRIPOS>SUBSTRUCTURE
     1 <0>         1 GROUP 0 A     ****
