@<TRIPOS>MOLECULE
AlkEthOH_c679
   29    28     1     0     0
SMALL
USER_CHARGES

@<TRIPOS>ATOM
      1 C1         -0.4900    0.6393   -3.7713 CT        1 <0>       -0.13156
      2 C2          0.9598    1.3174    2.8106 CT        1 <0>       -0.12430
      3 C3         -1.0143   -0.2074    2.6085 CT        1 <0>       -0.12430
      4 C4          0.0820   -0.7499   -1.7496 CT        1 <0>       -0.11015
      5 C5          0.5080    0.2065    0.5962 CT        1 <0>       -0.05866
      6 C6         -0.6621    0.4850   -2.2653 CT        1 <0>        0.14253
      7 C7         -0.0212   -0.9801   -0.2311 CT        1 <0>        0.15107
      8 C8          0.4156    0.0539    2.1336 CT        1 <0>        0.15677
      9 O1         -2.0493    0.3534   -1.9715 OH        1 <0>       -0.60384
     10 O2          0.7189   -2.1619    0.0748 OH        1 <0>       -0.57804
     11 O3          1.2186   -1.0447    2.5674 OH        1 <0>       -0.57387
     12 H1         -0.8497   -0.2499   -4.3008 HC        1 <0>        0.04393
     13 H2         -1.0819    1.4842   -4.1395 HC        1 <0>        0.04393
     14 H3          0.5581    0.8077   -4.0367 HC        1 <0>        0.04393
     15 H4          1.9855    1.5246    2.4845 HC        1 <0>        0.04121
     16 H5          0.3655    2.1959    2.5340 HC        1 <0>        0.04121
     17 H6          0.9539    1.2252    3.9016 HC        1 <0>        0.04121
     18 H7         -1.4355   -1.1047    2.1440 HC        1 <0>        0.04121
     19 H8         -1.0610   -0.3182    3.6971 HC        1 <0>        0.04121
     20 H9         -1.6644    0.6421    2.3678 HC        1 <0>        0.04121
     21 H10        -0.3175   -1.6456   -2.2453 HC        1 <0>        0.05408
     22 H11         1.1391   -0.6974   -2.0411 HC        1 <0>        0.05408
     23 H12         1.5651    0.3512    0.3344 HC        1 <0>        0.05544
     24 H13        -0.0277    1.1171    0.3040 HC        1 <0>        0.05544
     25 H14        -0.2933    1.3890   -1.7704 H1        1 <0>        0.03205
     26 H15        -1.0647   -1.1827    0.0293 H1        1 <0>        0.04658
     27 H16        -2.4785    1.1622   -2.2920 HO        1 <0>        0.39924
     28 H17         0.3071   -2.8807   -0.4281 HO        1 <0>        0.38899
     29 H18         1.1295   -1.0843    3.5314 HO        1 <0>        0.38940
@<TRIPOS>BOND
     1    1    6 1
     2    2    8 1
     3    3    8 1
     4    4    6 1
     5    4    7 1
     6    5    7 1
     7    5    8 1
     8    6    9 1
     9    7   10 1
    10    8   11 1
    11    1   12 1
    12    1   13 1
    13    1   14 1
    14    2   15 1
    15    2   16 1
    16    2   17 1
    17    3   18 1
    18    3   19 1
    19    3   20 1
    20    4   21 1
    21    4   22 1
    22    5   23 1
    23    5   24 1
    24    6   25 1
    25    7   26 1
    26    9   27 1
    27   10   28 1
    28   11   29 1
@<TRIPOS>SUBSTRUCTURE
     1 <0>         1 GROUP 0 A     ****
