@<TRIPOS>MOLECULE
AlkEthOH_c1087
   24    23     1     0     0
SMALL
USER_CHARGES

@<TRIPOS>ATOM
      1 C1          0.9017   -0.5897    0.4461 CT        1 <0>       -0.09131
      2 C2          0.8194    2.5697    4.3510 CT        1 <0>       -0.08850
      3 C3          3.9399   -0.1133    5.3558 CT        1 <0>        0.11508
      4 C4          1.7436    0.3762    1.2663 CT        1 <0>       -0.07962
      5 C5          0.9469    0.9535    2.4385 CT        1 <0>       -0.07373
      6 C6          3.0253    1.4587    3.8675 CT        1 <0>        0.12862
      7 C7          1.7287    2.0037    3.2539 CT        1 <0>       -0.05973
      8 O1          2.7471    0.4221    4.7981 OS        1 <0>       -0.41791
      9 H1          0.0042   -0.0965    0.0595 HC        1 <0>        0.03257
     10 H2          1.4704   -0.9838   -0.4022 HC        1 <0>        0.03257
     11 H3          0.5853   -1.4356    1.0645 HC        1 <0>        0.03257
     12 H4          0.5101    1.7933    5.0587 HC        1 <0>        0.03770
     13 H5         -0.0851    3.0086    3.9162 HC        1 <0>        0.03770
     14 H6          1.3324    3.3573    4.9131 HC        1 <0>        0.03770
     15 H7          3.6879   -0.9056    6.0648 H1        1 <0>        0.03177
     16 H8          4.4948    0.6805    5.8622 H1        1 <0>        0.03177
     17 H9          4.5530   -0.5281    4.5522 H1        1 <0>        0.03177
     18 H10         2.6276   -0.1570    1.6318 HC        1 <0>        0.03655
     19 H11         2.0939    1.1873    0.6177 HC        1 <0>        0.03655
     20 H12         0.6167    0.1364    3.0922 HC        1 <0>        0.04675
     21 H13         0.0355    1.4231    2.0455 HC        1 <0>        0.04675
     22 H14         3.5639    2.2560    4.3914 H1        1 <0>        0.02506
     23 H15         3.6897    1.0624    3.0936 H1        1 <0>        0.02506
     24 H16         1.9970    2.8327    2.5863 HC        1 <0>        0.04426
@<TRIPOS>BOND
     1    1    4 1
     2    2    7 1
     3    3    8 1
     4    4    5 1
     5    5    7 1
     6    6    7 1
     7    6    8 1
     8    1    9 1
     9    1   10 1
    10    1   11 1
    11    2   12 1
    12    2   13 1
    13    2   14 1
    14    3   15 1
    15    3   16 1
    16    3   17 1
    17    4   18 1
    18    4   19 1
    19    5   20 1
    20    5   21 1
    21    6   22 1
    22    6   23 1
    23    7   24 1
@<TRIPOS>SUBSTRUCTURE
     1 <0>         1 GROUP 0 A     ****
