@<TRIPOS>MOLECULE
AlkEthOH_c216
   22    21     1     0     0
SMALL
USER_CHARGES

@<TRIPOS>ATOM
      1 C1         -0.0356    1.2234   -1.6658 CT        1 <0>       -0.08908
      2 C2         -0.2715    1.5964    0.7930 CT        1 <0>       -0.08908
      3 C3          1.0314   -0.4003   -0.0938 CT        1 <0>       -0.07429
      4 C4          1.0250   -1.2390    1.1810 CT        1 <0>        0.13483
      5 C5         -1.5254   -0.2767   -0.3017 CT        1 <0>        0.13558
      6 C6         -0.2019    0.5180   -0.3028 CT        1 <0>       -0.04730
      7 O1          2.2025   -2.0386    1.2013 OH        1 <0>       -0.60251
      8 O2         -1.5362   -1.2481   -1.3397 OH        1 <0>       -0.59770
      9 H1          0.0193    0.4951   -2.4830 HC        1 <0>        0.03835
     10 H2          0.8827    1.8211   -1.6928 HC        1 <0>        0.03835
     11 H3         -0.8755    1.8946   -1.8766 HC        1 <0>        0.03835
     12 H4         -0.3900    1.1560    1.7884 HC        1 <0>        0.03835
     13 H5          0.6361    2.2103    0.8023 HC        1 <0>        0.03835
     14 H6         -1.1237    2.2667    0.6317 HC        1 <0>        0.03835
     15 H7          1.9465    0.2085   -0.1003 HC        1 <0>        0.06324
     16 H8          1.1442   -1.0778   -0.9513 HC        1 <0>        0.06324
     17 H9          0.1623   -1.9099    1.2149 H1        1 <0>        0.01896
     18 H10         1.0289   -0.6101    2.0752 H1        1 <0>        0.01896
     19 H11        -1.6791   -0.7926    0.6519 H1        1 <0>        0.02012
     20 H12        -2.3784    0.3940   -0.4566 H1        1 <0>        0.02012
     21 H13         2.1711   -2.5588    2.0197 HO        1 <0>        0.39670
     22 H14        -2.3891   -1.7083   -1.2831 HO        1 <0>        0.39811
@<TRIPOS>BOND
     1    1    6 1
     2    2    6 1
     3    3    4 1
     4    3    6 1
     5    4    7 1
     6    5    6 1
     7    5    8 1
     8    1    9 1
     9    1   10 1
    10    1   11 1
    11    2   12 1
    12    2   13 1
    13    2   14 1
    14    3   15 1
    15    3   16 1
    16    4   17 1
    17    4   18 1
    18    5   19 1
    19    5   20 1
    20    7   21 1
    21    8   22 1
@<TRIPOS>SUBSTRUCTURE
     1 <0>         1 GROUP 0 A     ****
