@<TRIPOS>MOLECULE
AlkEthOH_c220
   29    28     1     0     0
SMALL
USER_CHARGES

@<TRIPOS>ATOM
      1 C1          0.9511   -0.3029    0.4536 CT        1 <0>       -0.10544
      2 C2         -0.0965   -0.0035    2.7071 CT        1 <0>       -0.10544
      3 C3         -0.2921   -3.4019   -0.4894 CT        1 <0>       -0.13333
      4 C4          0.6581   -4.3715    1.6059 CT        1 <0>       -0.13333
      5 C5          2.0341   -1.3283    2.5217 CT        1 <0>       -0.10410
      6 C6          2.7319   -0.1695    3.2309 CT        1 <0>        0.13467
      7 C7          0.7167   -0.9506    1.8190 CT        1 <0>        0.19092
      8 C8          0.5466   -3.1053    0.7558 CT        1 <0>        0.36439
      9 O1          3.9429   -0.6306    3.8195 OH        1 <0>       -0.60112
     10 O2          1.8793   -2.7538    0.3826 OH        1 <0>       -0.62108
     11 O3         -0.0614   -2.1299    1.6054 OS        1 <0>       -0.43781
     12 H1          1.5313   -0.9566   -0.2063 HC        1 <0>        0.04426
     13 H2         -0.0011   -0.1288   -0.0613 HC        1 <0>        0.04426
     14 H3          1.4719    0.6556    0.5466 HC        1 <0>        0.04426
     15 H4         -0.2827   -0.4378    3.6949 HC        1 <0>        0.04426
     16 H5          0.4244    0.9518    2.8392 HC        1 <0>        0.04426
     17 H6         -1.0619    0.2337    2.2454 HC        1 <0>        0.04426
     18 H7         -0.3900   -2.5113   -1.1199 HC        1 <0>        0.04888
     19 H8          0.1449   -4.2143   -1.0790 HC        1 <0>        0.04888
     20 H9         -1.3110   -3.7004   -0.2203 HC        1 <0>        0.04888
     21 H10         1.2567   -4.1779    2.5042 HC        1 <0>        0.04888
     22 H11         1.1531   -5.1805    1.0578 HC        1 <0>        0.04888
     23 H12        -0.3262   -4.7150    1.9421 HC        1 <0>        0.04888
     24 H13         2.7386   -1.7348    1.7833 HC        1 <0>        0.07379
     25 H14         1.8605   -2.1384    3.2417 HC        1 <0>        0.07379
     26 H15         2.9869    0.6292    2.5285 H1        1 <0>        0.01839
     27 H16         2.1116    0.2535    4.0261 H1        1 <0>        0.01839
     28 H17         4.3492    0.1349    4.2560 HO        1 <0>        0.39557
     29 H18         2.2668   -3.5014   -0.1027 HO        1 <0>        0.41290
@<TRIPOS>BOND
     1    1    7 1
     2    2    7 1
     3    3    8 1
     4    4    8 1
     5    5    6 1
     6    5    7 1
     7    6    9 1
     8    7   11 1
     9    8   10 1
    10    8   11 1
    11    1   12 1
    12    1   13 1
    13    1   14 1
    14    2   15 1
    15    2   16 1
    16    2   17 1
    17    3   18 1
    18    3   19 1
    19    3   20 1
    20    4   21 1
    21    4   22 1
    22    4   23 1
    23    5   24 1
    24    5   25 1
    25    6   26 1
    26    6   27 1
    27    9   28 1
    28   10   29 1
@<TRIPOS>SUBSTRUCTURE
     1 <0>         1 GROUP 0 A     ****
