@<TRIPOS>MOLECULE
AlkEthOH_c279
   33    32     1     0     0
SMALL
USER_CHARGES

@<TRIPOS>ATOM
      1 C1         -0.9867    0.4187   -2.1344 CT        1 <0>       -0.08747
      2 C2         -0.3277    2.6474   -1.2541 CT        1 <0>       -0.08747
      3 C3          0.3391    1.3937    1.4609 CT        1 <0>       -0.09114
      4 C4         -2.0027    0.9973    0.7701 CT        1 <0>       -0.09114
      5 C5          0.6563   -3.1167    0.0560 CT        1 <0>       -0.12712
      6 C6          1.9131   -1.6002    1.5785 CT        1 <0>       -0.12712
      7 C7         -0.3903   -0.9022    0.6112 CT        1 <0>       -0.05476
      8 C8         -0.1793    1.1312   -1.0384 CT        1 <0>       -0.05956
      9 C9         -0.5294    0.6526    0.4164 CT        1 <0>       -0.02615
     10 C10         0.9554   -1.6451    0.3918 CT        1 <0>        0.15721
     11 O1          1.6489   -1.0981   -0.7304 OH        1 <0>       -0.59346
     12 H1         -2.0578    0.6066   -1.9985 HC        1 <0>        0.03040
     13 H2         -0.8419   -0.6661   -2.1008 HC        1 <0>        0.03040
     14 H3         -0.7240    0.7624   -3.1368 HC        1 <0>        0.03040
     15 H4         -1.3585    2.9785   -1.0988 HC        1 <0>        0.03040
     16 H5         -0.0135    2.9514   -2.2568 HC        1 <0>        0.03040
     17 H6          0.2911    3.1974   -0.5357 HC        1 <0>        0.03040
     18 H7          1.4075    1.2119    1.2947 HC        1 <0>        0.03367
     19 H8          0.1934    2.4785    1.4051 HC        1 <0>        0.03367
     20 H9          0.1231    1.0751    2.4825 HC        1 <0>        0.03367
     21 H10        -2.7109    0.5193    0.0862 HC        1 <0>        0.03367
     22 H11        -2.2605    0.6895    1.7889 HC        1 <0>        0.03367
     23 H12        -2.1754    2.0787    0.7085 HC        1 <0>        0.03367
     24 H13        -0.0310   -3.1933   -0.7946 HC        1 <0>        0.04156
     25 H14         0.1606   -3.6175    0.8958 HC        1 <0>        0.04156
     26 H15         1.5705   -3.6691   -0.1851 HC        1 <0>        0.04156
     27 H16         2.1492   -0.5629    1.8464 HC        1 <0>        0.04156
     28 H17         2.8549   -2.1133    1.3616 HC        1 <0>        0.04156
     29 H18         1.4588   -2.0273    2.4769 HC        1 <0>        0.04156
     30 H19        -0.7342   -1.1347    1.6300 HC        1 <0>        0.04226
     31 H20        -1.1253   -1.3782   -0.0539 HC        1 <0>        0.04226
     32 H21         0.8799    0.9133   -1.2178 HC        1 <0>        0.07498
     33 H22         2.4577   -1.6216   -0.8336 HO        1 <0>        0.39490
@<TRIPOS>BOND
     1    1    8 1
     2    2    8 1
     3    3    9 1
     4    4    9 1
     5    5   10 1
     6    6   10 1
     7    7    9 1
     8    7   10 1
     9    8    9 1
    10   10   11 1
    11    1   12 1
    12    1   13 1
    13    1   14 1
    14    2   15 1
    15    2   16 1
    16    2   17 1
    17    3   18 1
    18    3   19 1
    19    3   20 1
    20    4   21 1
    21    4   22 1
    22    4   23 1
    23    5   24 1
    24    5   25 1
    25    5   26 1
    26    6   27 1
    27    6   28 1
    28    6   29 1
    29    7   30 1
    30    7   31 1
    31    8   32 1
    32   11   33 1
@<TRIPOS>SUBSTRUCTURE
     1 <0>         1 GROUP 0 A     ****
