@<TRIPOS>MOLECULE
AlkEthOH_c236
   19    18     1     0     0
SMALL
USER_CHARGES

@<TRIPOS>ATOM
      1 C1         -0.4921    0.1122    0.9716 CT        1 <0>       -0.12306
      2 C2          1.6723    0.5912    2.1500 CT        1 <0>       -0.12306
      3 C3          1.9960   -3.5459    2.9939 CT        1 <0>        0.11478
      4 C4          0.7921   -1.7855    2.0067 CT        1 <0>        0.13707
      5 C5          0.4298   -0.2995    2.1208 CT        1 <0>        0.15116
      6 O1         -0.2710   -0.0901    3.3496 OH        1 <0>       -0.58527
      7 O2          1.6294   -2.1769    3.0890 OS        1 <0>       -0.40750
      8 H1         -1.3862   -0.5210    0.9424 HC        1 <0>        0.04545
      9 H2         -0.8084    1.1564    1.0628 HC        1 <0>        0.04545
     10 H3          0.0077   -0.0148    0.0045 HC        1 <0>        0.04545
     11 H4          2.3454    0.3108    2.9678 HC        1 <0>        0.04545
     12 H5          1.3962    1.6368    2.3298 HC        1 <0>        0.04545
     13 H6          2.2270    0.5381    1.2076 HC        1 <0>        0.04545
     14 H7          2.6368   -3.8118    3.8381 H1        1 <0>        0.03235
     15 H8          2.5247   -3.7179    2.0529 H1        1 <0>        0.03235
     16 H9          1.0917   -4.1586    3.0187 H1        1 <0>        0.03235
     17 H10        -0.1078   -2.4090    2.0456 H1        1 <0>        0.03433
     18 H11         1.3250   -1.9888    1.0718 H1        1 <0>        0.03433
     19 H12        -0.4842    0.8539    3.3830 HO        1 <0>        0.39747
@<TRIPOS>BOND
     1    1    5 1
     2    2    5 1
     3    3    7 1
     4    4    5 1
     5    4    7 1
     6    5    6 1
     7    1    8 1
     8    1    9 1
     9    1   10 1
    10    2   11 1
    11    2   12 1
    12    2   13 1
    13    3   14 1
    14    3   15 1
    15    3   16 1
    16    4   17 1
    17    4   18 1
    18    6   19 1
@<TRIPOS>SUBSTRUCTURE
     1 <0>         1 GROUP 0 A     ****
