@<TRIPOS>MOLECULE
AlkEthOH_c853
   30    29     1     0     0
SMALL
USER_CHARGES

@<TRIPOS>ATOM
      1 C1          0.1271   -1.5518   -2.3209 CT        1 <0>       -0.13059
      2 C2          2.1539    0.4240    1.6356 CT        1 <0>       -0.10768
      3 C3          1.4114   -0.1855    3.9565 CT        1 <0>       -0.10768
      4 C4          1.3807   -1.9178    2.1382 CT        1 <0>       -0.10768
      5 C5         -1.7838    0.7564    0.6912 CT        1 <0>       -0.12345
      6 C6         -0.2409   -0.3198   -1.5098 CT        1 <0>        0.34824
      7 C7          1.2011   -0.4360    2.4648 CT        1 <0>        0.17776
      8 C8         -0.2908    0.4184    0.8006 CT        1 <0>        0.54627
      9 O1          0.5703    0.7527   -1.9776 OH        1 <0>       -0.59354
     10 O2          0.4775    1.6089    0.6030 OH        1 <0>       -0.61454
     11 O3          0.0117   -0.6251   -0.1397 OS        1 <0>       -0.43705
     12 O4         -0.1345   -0.0620    2.1517 OS        1 <0>       -0.45987
     13 H1          1.1789   -1.8180   -2.1649 HC        1 <0>        0.05488
     14 H2         -0.4770   -2.4135   -2.0194 HC        1 <0>        0.05488
     15 H3         -0.0096   -1.3718   -3.3919 HC        1 <0>        0.05488
     16 H4          2.0061    0.2471    0.5642 HC        1 <0>        0.04537
     17 H5          2.0110    1.4911    1.8348 HC        1 <0>        0.04537
     18 H6          3.1980    0.1687    1.8499 HC        1 <0>        0.04537
     19 H7          0.7299   -0.8005    4.5552 HC        1 <0>        0.04537
     20 H8          1.1912    0.8574    4.2120 HC        1 <0>        0.04537
     21 H9          2.4387   -0.4080    4.2627 HC        1 <0>        0.04537
     22 H10         0.6974   -2.5349    2.7328 HC        1 <0>        0.04537
     23 H11         1.1974   -2.1223    1.0784 HC        1 <0>        0.04537
     24 H12         2.3946   -2.2516    2.3870 HC        1 <0>        0.04537
     25 H13        -2.4176   -0.1237    0.8352 HC        1 <0>        0.05923
     26 H14        -2.0175    1.1669   -0.2978 HC        1 <0>        0.05923
     27 H15        -2.0698    1.5029    1.4403 HC        1 <0>        0.05923
     28 H16        -1.2943   -0.0810   -1.6870 H2        1 <0>        0.03992
     29 H17         0.3696    0.8710   -2.9214 HO        1 <0>        0.40205
     30 H18         0.2376    2.2597    1.2831 HO        1 <0>        0.41718
@<TRIPOS>BOND
     1    1    6 1
     2    2    7 1
     3    3    7 1
     4    4    7 1
     5    5    8 1
     6    6    9 1
     7    6   11 1
     8    7   12 1
     9    8   10 1
    10    8   11 1
    11    8   12 1
    12    1   13 1
    13    1   14 1
    14    1   15 1
    15    2   16 1
    16    2   17 1
    17    2   18 1
    18    3   19 1
    19    3   20 1
    20    3   21 1
    21    4   22 1
    22    4   23 1
    23    4   24 1
    24    5   25 1
    25    5   26 1
    26    5   27 1
    27    6   28 1
    28    9   29 1
    29   10   30 1
@<TRIPOS>SUBSTRUCTURE
     1 <0>         1 GROUP 0 A     ****
