@<TRIPOS>MOLECULE
AlkEthOH_c893
   14    13     1     0     0
SMALL
USER_CHARGES

@<TRIPOS>ATOM
      1 C1         -0.2764    0.2506   -2.0023 CT        1 <0>       -0.12902
      2 C2         -0.6973    0.2997    1.6281 CT        1 <0>        0.33118
      3 C3          0.2133    0.1388   -0.5674 CT        1 <0>        0.33874
      4 O1          0.2365   -0.5650    2.2574 OH        1 <0>       -0.60038
      5 O2          1.1026   -0.9702   -0.5060 OH        1 <0>       -0.59272
      6 O3         -0.9355   -0.0284    0.2629 OS        1 <0>       -0.39701
      7 H1         -0.8203   -0.6508   -2.3021 HC        1 <0>        0.05232
      8 H2         -0.9256    1.1229   -2.1287 HC        1 <0>        0.05232
      9 H3          0.5681    0.3681   -2.6908 HC        1 <0>        0.05232
     10 H4         -0.3834    1.3439    1.7399 H2        1 <0>        0.03206
     11 H5         -1.6483    0.1835    2.1560 H2        1 <0>        0.03206
     12 H6          0.7520    1.0565   -0.3017 H2        1 <0>        0.02323
     13 H7          0.3334   -0.2658    3.1768 HO        1 <0>        0.40377
     14 H8          1.8346   -0.7881   -1.1190 HO        1 <0>        0.40113
@<TRIPOS>BOND
     1    1    3 1
     2    2    4 1
     3    2    6 1
     4    3    5 1
     5    3    6 1
     6    1    7 1
     7    1    8 1
     8    1    9 1
     9    2   10 1
    10    2   11 1
    11    3   12 1
    12    4   13 1
    13    5   14 1
@<TRIPOS>SUBSTRUCTURE
     1 <0>         1 GROUP 0 A     ****
