@<TRIPOS>MOLECULE
AlkEthOH_c620
   28    27     1     0     0
SMALL
USER_CHARGES

@<TRIPOS>ATOM
      1 C1          3.1828   -0.2707    0.6200 CT        1 <0>       -0.13121
      2 C2         -0.5995   -1.1644   -1.6397 CT        1 <0>       -0.08708
      3 C3         -0.7684    1.2738   -1.1203 CT        1 <0>       -0.08708
      4 C4         -1.8617   -0.4407    0.3865 CT        1 <0>       -0.07997
      5 C5          0.6760   -0.2393    0.3656 CT        1 <0>       -0.06504
      6 C6         -2.0428    0.4328    1.6251 CT        1 <0>        0.13168
      7 C7          2.0250   -0.0682   -0.3528 CT        1 <0>        0.14145
      8 C8         -0.6179   -0.1262   -0.4982 CT        1 <0>       -0.04009
      9 O1         -3.2003   -0.0115    2.3251 OH        1 <0>       -0.60535
     10 O2          2.1255    1.2438   -0.8931 OH        1 <0>       -0.59981
     11 H1          3.1190    0.4329    1.4574 HC        1 <0>        0.04225
     12 H2          4.1398   -0.0802    0.1220 HC        1 <0>        0.04225
     13 H3          3.1961   -1.2905    1.0167 HC        1 <0>        0.04225
     14 H4         -0.4935   -2.1818   -1.2453 HC        1 <0>        0.03732
     15 H5          0.2371   -0.9840   -2.3238 HC        1 <0>        0.03732
     16 H6         -1.5248   -1.1455   -2.2244 HC        1 <0>        0.03732
     17 H7         -0.7877    2.0560   -0.3544 HC        1 <0>        0.03732
     18 H8          0.0507    1.5031   -1.8093 HC        1 <0>        0.03732
     19 H9         -1.6967    1.3486   -1.6985 HC        1 <0>        0.03732
     20 H10        -2.7745   -0.3640   -0.2211 HC        1 <0>        0.05329
     21 H11        -1.8288   -1.4914    0.7069 HC        1 <0>        0.05329
     22 H12         0.6264    0.5123    1.1641 HC        1 <0>        0.04744
     23 H13         0.6732   -1.2224    0.8558 HC        1 <0>        0.04744
     24 H14        -1.1895    0.3509    2.3033 H1        1 <0>        0.02259
     25 H15        -2.1927    1.4822    1.3575 H1        1 <0>        0.02259
     26 H16         2.1249   -0.7870   -1.1712 H1        1 <0>        0.03141
     27 H17        -3.2898    0.5596    3.1042 HO        1 <0>        0.39778
     28 H18         2.9825    1.2942   -1.3458 HO        1 <0>        0.39600
@<TRIPOS>BOND
     1    1    7 1
     2    2    8 1
     3    3    8 1
     4    4    6 1
     5    4    8 1
     6    5    7 1
     7    5    8 1
     8    6    9 1
     9    7   10 1
    10    1   11 1
    11    1   12 1
    12    1   13 1
    13    2   14 1
    14    2   15 1
    15    2   16 1
    16    3   17 1
    17    3   18 1
    18    3   19 1
    19    4   20 1
    20    4   21 1
    21    5   22 1
    22    5   23 1
    23    6   24 1
    24    6   25 1
    25    7   26 1
    26    9   27 1
    27   10   28 1
@<TRIPOS>SUBSTRUCTURE
     1 <0>         1 GROUP 0 A     ****
