@<TRIPOS>MOLECULE
AlkEthOH_c979
   18    17     1     0     0
SMALL
USER_CHARGES

@<TRIPOS>ATOM
      1 C1          0.9784   -0.0326   -0.2360 CT        1 <0>       -0.08997
      2 C2          1.0608    0.9421   -3.9925 CT        1 <0>       -0.12257
      3 C3         -1.5335   -0.4576   -3.3587 CT        1 <0>        0.11683
      4 C4          1.4098    0.6794   -1.5114 CT        1 <0>       -0.07557
      5 C5          0.6395    0.1877   -2.7386 CT        1 <0>        0.13703
      6 O1         -0.7550    0.3897   -2.5267 OS        1 <0>       -0.42022
      7 H1         -0.0930    0.1019   -0.0565 HC        1 <0>        0.03653
      8 H2          1.5239    0.3435    0.6351 HC        1 <0>        0.03653
      9 H3          1.1759   -1.1062   -0.3184 HC        1 <0>        0.03653
     10 H4          0.9007    2.0196   -3.8742 HC        1 <0>        0.04168
     11 H5          2.1149    0.7666   -4.2274 HC        1 <0>        0.04168
     12 H6          0.4568    0.6272   -4.8504 HC        1 <0>        0.04168
     13 H7         -2.5950   -0.2777   -3.1716 H1        1 <0>        0.03084
     14 H8         -1.2874   -1.5016   -3.1492 H1        1 <0>        0.03084
     15 H9         -1.3073   -0.2347   -4.4041 H1        1 <0>        0.03084
     16 H10         2.4847    0.5237   -1.6590 HC        1 <0>        0.04630
     17 H11         1.2456    1.7551   -1.3741 HC        1 <0>        0.04630
     18 H12         0.8085   -0.8858   -2.8804 H1        1 <0>        0.03472
@<TRIPOS>BOND
     1    1    4 1
     2    2    5 1
     3    3    6 1
     4    4    5 1
     5    5    6 1
     6    1    7 1
     7    1    8 1
     8    1    9 1
     9    2   10 1
    10    2   11 1
    11    2   12 1
    12    3   13 1
    13    3   14 1
    14    3   15 1
    15    4   16 1
    16    4   17 1
    17    5   18 1
@<TRIPOS>SUBSTRUCTURE
     1 <0>         1 GROUP 0 A     ****
