@<TRIPOS>MOLECULE
AlkEthOH_c1245
   22    21     1     0     0
SMALL
USER_CHARGES

@<TRIPOS>ATOM
      1 C1         -2.1997    1.7783   -2.9577 CT        1 <0>       -0.09610
      2 C2          0.5179   -3.9602   -4.0798 CT        1 <0>       -0.09610
      3 C3         -0.0326   -1.0089   -0.4213 CT        1 <0>       -0.11541
      4 C4         -0.9532    1.1285   -2.3958 CT        1 <0>        0.13254
      5 C5          0.5466   -2.4957   -3.6976 CT        1 <0>        0.13254
      6 C6          0.0350   -0.9855   -1.9430 CT        1 <0>        0.33324
      7 O1         -1.1004   -0.2838   -2.4553 OS        1 <0>       -0.42421
      8 O2          0.0393   -2.3517   -2.3774 OS        1 <0>       -0.42421
      9 H1         -2.3553    1.4873   -4.0003 HC        1 <0>        0.04534
     10 H2         -3.0810    1.4908   -2.3750 HC        1 <0>        0.04534
     11 H3         -2.1241    2.8694   -2.9030 HC        1 <0>        0.04534
     12 H4          1.1378   -4.5527   -3.4012 HC        1 <0>        0.04534
     13 H5         -0.5062   -4.3466   -4.0514 HC        1 <0>        0.04534
     14 H6          0.8823   -4.0991   -5.1031 HC        1 <0>        0.04534
     15 H7         -0.9633   -1.4805   -0.0861 HC        1 <0>        0.05248
     16 H8         -0.0085    0.0004   -0.0004 HC        1 <0>        0.05248
     17 H9          0.7968   -1.5881   -0.0030 HC        1 <0>        0.05248
     18 H10        -0.8033    1.4236   -1.3530 H1        1 <0>        0.02496
     19 H11        -0.0737    1.4162   -2.9796 H1        1 <0>        0.02496
     20 H12        -0.0753   -1.9087   -4.3801 H1        1 <0>        0.02496
     21 H13         1.5706   -2.1114   -3.7256 H1        1 <0>        0.02496
     22 H14         0.9718   -0.5106   -2.2632 H2        1 <0>        0.02839
@<TRIPOS>BOND
     1    1    4 1
     2    2    5 1
     3    3    6 1
     4    4    7 1
     5    5    8 1
     6    6    7 1
     7    6    8 1
     8    1    9 1
     9    1   10 1
    10    1   11 1
    11    2   12 1
    12    2   13 1
    13    2   14 1
    14    3   15 1
    15    3   16 1
    16    3   17 1
    17    4   18 1
    18    4   19 1
    19    5   20 1
    20    5   21 1
    21    6   22 1
@<TRIPOS>SUBSTRUCTURE
     1 <0>         1 GROUP 0 A     ****
