@<TRIPOS>MOLECULE
AlkEthOH_c1254
   17    16     1     0     0
SMALL
USER_CHARGES

@<TRIPOS>ATOM
      1 C1         -0.4849   -0.4896   -3.2700 CT        1 <0>       -0.09789
      2 C2          0.2608   -0.6822   -1.9667 CT        1 <0>        0.13507
      3 C3         -0.4530    0.8641    1.2992 CT        1 <0>        0.10494
      4 C4          0.2970   -0.0144    0.3070 CT        1 <0>        0.30766
      5 O1         -1.8051    0.4351    1.3808 OH        1 <0>       -0.59494
      6 O2          1.6451    0.4403    0.2666 OH        1 <0>       -0.62434
      7 O3         -0.3524    0.1127   -0.9607 OS        1 <0>       -0.42219
      8 H1         -1.5296   -0.7971   -3.1709 HC        1 <0>        0.04425
      9 H2         -0.4532    0.5596   -3.5815 HC        1 <0>        0.04425
     10 H3         -0.0192   -1.0736   -4.0708 HC        1 <0>        0.04425
     11 H4          1.3049   -0.3728   -2.0726 H1        1 <0>        0.03592
     12 H5          0.2274   -1.7308   -1.6565 H1        1 <0>        0.03592
     13 H6         -0.0017    0.8011    2.2950 H1        1 <0>        0.05777
     14 H7         -0.4408    1.9122    0.9807 H1        1 <0>        0.05777
     15 H8          0.2650   -1.0589    0.6418 H2        1 <0>        0.04883
     16 H9         -2.2461    1.0177    2.0203 HO        1 <0>        0.41020
     17 H10         2.0062    0.3514    1.1647 HO        1 <0>        0.41253
@<TRIPOS>BOND
     1    1    2 1
     2    2    7 1
     3    3    4 1
     4    3    5 1
     5    4    6 1
     6    4    7 1
     7    1    8 1
     8    1    9 1
     9    1   10 1
    10    2   11 1
    11    2   12 1
    12    3   13 1
    13    3   14 1
    14    4   15 1
    15    5   16 1
    16    6   17 1
@<TRIPOS>SUBSTRUCTURE
     1 <0>         1 GROUP 0 A     ****
