@<TRIPOS>MOLECULE
AlkEthOH_c232
   26    25     1     0     0
SMALL
USER_CHARGES

@<TRIPOS>ATOM
      1 C1         -0.4921    0.1122    0.9716 CT        1 <0>       -0.09897
      2 C2          1.6723    0.5912    2.1500 CT        1 <0>       -0.09897
      3 C3         -2.7072    0.0660    3.6646 CT        1 <0>       -0.13177
      4 C4         -1.2954   -1.6936    4.7342 CT        1 <0>       -0.13177
      5 C5          0.7921   -1.7855    2.0067 CT        1 <0>        0.11309
      6 C6          0.4298   -0.2995    2.1208 CT        1 <0>        0.18667
      7 C7         -1.4833   -0.8345    3.4832 CT        1 <0>        0.36011
      8 O1          1.8456   -1.9690    1.0676 OH        1 <0>       -0.60728
      9 O2         -1.6928   -1.7420    2.4009 OH        1 <0>       -0.62682
     10 O3         -0.2710   -0.0901    3.3496 OS        1 <0>       -0.43447
     11 H1         -1.3862   -0.5210    0.9424 HC        1 <0>        0.04738
     12 H2         -0.8084    1.1564    1.0628 HC        1 <0>        0.04738
     13 H3          0.0077   -0.0148    0.0045 HC        1 <0>        0.04738
     14 H4          2.3454    0.3108    2.9678 HC        1 <0>        0.04738
     15 H5          1.3962    1.6368    2.3298 HC        1 <0>        0.04738
     16 H6          2.2270    0.5381    1.2076 HC        1 <0>        0.04738
     17 H7         -2.8679    0.6951    2.7822 HC        1 <0>        0.04928
     18 H8         -3.6098   -0.5234    3.8559 HC        1 <0>        0.04928
     19 H9         -2.5750    0.7507    4.5092 HC        1 <0>        0.04928
     20 H10        -0.4215   -2.3466    4.6225 HC        1 <0>        0.04928
     21 H11        -2.1609   -2.3418    4.9095 HC        1 <0>        0.04928
     22 H12        -1.1244   -1.0749    5.6218 HC        1 <0>        0.04928
     23 H13         1.1389   -2.1760    2.9697 H1        1 <0>        0.03867
     24 H14        -0.0689   -2.3748    1.6736 H1        1 <0>        0.03867
     25 H15         2.0297   -2.9213    1.0386 HO        1 <0>        0.39892
     26 H16        -2.4717   -2.2858    2.6059 HO        1 <0>        0.41396
@<TRIPOS>BOND
     1    1    6 1
     2    2    6 1
     3    3    7 1
     4    4    7 1
     5    5    6 1
     6    5    8 1
     7    6   10 1
     8    7    9 1
     9    7   10 1
    10    1   11 1
    11    1   12 1
    12    1   13 1
    13    2   14 1
    14    2   15 1
    15    2   16 1
    16    3   17 1
    17    3   18 1
    18    3   19 1
    19    4   20 1
    20    4   21 1
    21    4   22 1
    22    5   23 1
    23    5   24 1
    24    8   25 1
    25    9   26 1
@<TRIPOS>SUBSTRUCTURE
     1 <0>         1 GROUP 0 A     ****
