@<TRIPOS>MOLECULE
AlkEthOH_c389
   28    27     1     0     0
SMALL
USER_CHARGES

@<TRIPOS>ATOM
      1 C1         -1.2825    0.1275    1.7800 CT        1 <0>       -0.09320
      2 C2         -1.2342   -2.2142    0.9129 CT        1 <0>       -0.09320
      3 C3          0.5788    1.2465   -2.2329 CT        1 <0>       -0.10738
      4 C4          1.9217    0.8707   -0.1563 CT        1 <0>       -0.10738
      5 C5         -0.2724   -0.3947   -0.5266 CT        1 <0>       -0.09079
      6 C6         -1.2724    2.4706   -0.8830 CT        1 <0>        0.32994
      7 C7         -0.4978   -0.8691    0.9274 CT        1 <0>       -0.05882
      8 C8          0.5076    0.9241   -0.7347 CT        1 <0>        0.16115
      9 O1         -2.1684    3.2934   -0.1499 OH        1 <0>       -0.58935
     10 O2         -0.1778    2.0061   -0.1039 OS        1 <0>       -0.41087
     11 H1         -2.2652    0.3352    1.3480 HC        1 <0>        0.03698
     12 H2         -0.7557    1.0861    1.8420 HC        1 <0>        0.03698
     13 H3         -1.4233   -0.2453    2.8001 HC        1 <0>        0.03698
     14 H4         -2.2202   -2.1138    0.4467 HC        1 <0>        0.03698
     15 H5         -0.6721   -2.9604    0.3413 HC        1 <0>        0.03698
     16 H6         -1.3758   -2.6011    1.9279 HC        1 <0>        0.03698
     17 H7         -0.4180    1.2934   -2.6838 HC        1 <0>        0.04512
     18 H8          1.0815    2.2057   -2.4029 HC        1 <0>        0.04512
     19 H9          1.1668    0.4916   -2.7676 HC        1 <0>        0.04512
     20 H10         1.9093    0.6421    0.9145 HC        1 <0>        0.04512
     21 H11         2.4147    1.8458   -0.2463 HC        1 <0>        0.04512
     22 H12         2.5383    0.1254   -0.6687 HC        1 <0>        0.04512
     23 H13         0.2589   -1.1949   -1.0602 HC        1 <0>        0.04156
     24 H14        -1.2555   -0.2995   -1.0085 HC        1 <0>        0.04156
     25 H15        -1.8154    1.6387   -1.3464 H2        1 <0>        0.01762
     26 H16        -0.8542    3.0831   -1.6870 H2        1 <0>        0.01762
     27 H17         0.4745   -1.0404    1.4041 HC        1 <0>        0.04452
     28 H18        -2.8774    3.5607   -0.7588 HO        1 <0>        0.40442
@<TRIPOS>BOND
     1    1    7 1
     2    2    7 1
     3    3    8 1
     4    4    8 1
     5    5    7 1
     6    5    8 1
     7    6    9 1
     8    6   10 1
     9    8   10 1
    10    1   11 1
    11    1   12 1
    12    1   13 1
    13    2   14 1
    14    2   15 1
    15    2   16 1
    16    3   17 1
    17    3   18 1
    18    3   19 1
    19    4   20 1
    20    4   21 1
    21    4   22 1
    22    5   23 1
    23    5   24 1
    24    6   25 1
    25    6   26 1
    26    7   27 1
    27    9   28 1
@<TRIPOS>SUBSTRUCTURE
     1 <0>         1 GROUP 0 A     ****
