@<TRIPOS>MOLECULE
AlkEthOH_c326
   24    23     1     0     0
SMALL
USER_CHARGES

@<TRIPOS>ATOM
      1 C1          0.5633   -0.9368   -0.0378 CT        1 <0>       -0.09007
      2 C2         -0.6173   -1.4629   -2.1819 CT        1 <0>       -0.09007
      3 C3          1.8318   -3.3100   -1.6739 CT        1 <0>       -0.08761
      4 C4          1.4092   -5.9445    1.6026 CT        1 <0>        0.11705
      5 C5          0.7192   -3.9983    0.4804 CT        1 <0>        0.12858
      6 C6         -0.2235   -2.0043   -0.8032 CT        1 <0>       -0.06396
      7 C7          0.5040   -3.3724   -0.9070 CT        1 <0>       -0.05919
      8 O1          1.2374   -5.3162    0.3401 OS        1 <0>       -0.42187
      9 H1          1.5155   -0.7124   -0.5268 HC        1 <0>        0.03441
     10 H2          0.7938   -1.2860    0.9748 HC        1 <0>        0.03441
     11 H3         -0.0028   -0.0052    0.0577 HC        1 <0>        0.03441
     12 H4          0.2578   -1.2615   -2.8076 HC        1 <0>        0.03441
     13 H5         -1.1717   -0.5234   -2.0799 HC        1 <0>        0.03441
     14 H6         -1.2630   -2.1718   -2.7109 HC        1 <0>        0.03441
     15 H7          2.5490   -2.6472   -1.1814 HC        1 <0>        0.03833
     16 H8          1.6786   -2.9182   -2.6854 HC        1 <0>        0.03833
     17 H9          2.2892   -4.2996   -1.7710 HC        1 <0>        0.03833
     18 H10         1.8074   -6.9517    1.4579 H1        1 <0>        0.03122
     19 H11         0.4481   -5.9920    2.1207 H1        1 <0>        0.03122
     20 H12         2.1134   -5.3588    2.1982 H1        1 <0>        0.03122
     21 H13         1.4280   -3.4169    1.0784 H1        1 <0>        0.02637
     22 H14        -0.2285   -4.0668    1.0247 H1        1 <0>        0.02637
     23 H15        -1.1601   -2.1738   -0.2544 HC        1 <0>        0.04071
     24 H16        -0.1469   -4.0552   -1.4712 HC        1 <0>        0.05858
@<TRIPOS>BOND
     1    1    6 1
     2    2    6 1
     3    3    7 1
     4    4    8 1
     5    5    7 1
     6    5    8 1
     7    6    7 1
     8    1    9 1
     9    1   10 1
    10    1   11 1
    11    2   12 1
    12    2   13 1
    13    2   14 1
    14    3   15 1
    15    3   16 1
    16    3   17 1
    17    4   18 1
    18    4   19 1
    19    4   20 1
    20    5   21 1
    21    5   22 1
    22    6   23 1
    23    7   24 1
@<TRIPOS>SUBSTRUCTURE
     1 <0>         1 GROUP 0 A     ****
