@<TRIPOS>MOLECULE
AlkEthOH_c502
   31    30     1     0     0
SMALL
USER_CHARGES

@<TRIPOS>ATOM
      1 C1         -1.9181    1.5125   -3.9497 CT        1 <0>       -0.10617
      2 C2         -2.7826   -0.6402   -4.9347 CT        1 <0>       -0.10617
      3 C3         -1.7562   -2.1655    0.6235 CT        1 <0>       -0.12162
      4 C4         -0.5833   -2.8973   -1.4641 CT        1 <0>       -0.12162
      5 C5         -3.4862   -1.7616   -1.9060 CT        1 <0>       -0.12156
      6 C6         -2.6891    0.4050   -0.9365 CT        1 <0>       -0.12156
      7 C7         -2.5176    0.1450   -3.6592 CT        1 <0>        0.13810
      8 C8         -1.1921   -1.6962   -0.7274 CT        1 <0>        0.16547
      9 C9         -2.2445   -0.9158   -1.5800 CT        1 <0>        0.17436
     10 O1         -0.1155   -0.7914   -0.4312 OH        1 <0>       -0.59205
     11 O2         -1.6290   -0.5880   -2.8368 OS        1 <0>       -0.41356
     12 H1         -0.9794    1.4247   -4.5051 HC        1 <0>        0.04127
     13 H2         -2.6170    2.1180   -4.5368 HC        1 <0>        0.04127
     14 H3         -1.7266    2.0642   -3.0227 HC        1 <0>        0.04127
     15 H4         -1.8646   -0.7793   -5.5137 HC        1 <0>        0.04127
     16 H5         -3.5145   -0.1169   -5.5594 HC        1 <0>        0.04127
     17 H6         -3.2078   -1.6247   -4.7103 HC        1 <0>        0.04127
     18 H7         -2.2011   -1.3345    1.1816 HC        1 <0>        0.04495
     19 H8         -2.5075   -2.9518    0.5057 HC        1 <0>        0.04495
     20 H9         -0.9561   -2.5601    1.2616 HC        1 <0>        0.04495
     21 H10        -0.1658   -2.6175   -2.4355 HC        1 <0>        0.04495
     22 H11         0.1983   -3.3796   -0.8685 HC        1 <0>        0.04495
     23 H12        -1.3425   -3.6696   -1.6371 HC        1 <0>        0.04495
     24 H13        -3.2238   -2.7175   -2.3685 HC        1 <0>        0.04537
     25 H14        -4.0588   -1.9764   -0.9957 HC        1 <0>        0.04537
     26 H15        -4.1719   -1.2255   -2.5710 HC        1 <0>        0.04537
     27 H16        -1.8323    1.0391   -0.6879 HC        1 <0>        0.04537
     28 H17        -3.2971    0.9905   -1.6368 HC        1 <0>        0.04537
     29 H18        -3.2842    0.2444   -0.0330 HC        1 <0>        0.04537
     30 H19        -3.4534    0.2668   -3.1040 H1        1 <0>        0.03879
     31 H20         0.5260   -1.3023    0.0799 HO        1 <0>        0.39805
@<TRIPOS>BOND
     1    1    7 1
     2    2    7 1
     3    3    8 1
     4    4    8 1
     5    5    9 1
     6    6    9 1
     7    7   11 1
     8    8    9 1
     9    8   10 1
    10    9   11 1
    11    1   12 1
    12    1   13 1
    13    1   14 1
    14    2   15 1
    15    2   16 1
    16    2   17 1
    17    3   18 1
    18    3   19 1
    19    3   20 1
    20    4   21 1
    21    4   22 1
    22    4   23 1
    23    5   24 1
    24    5   25 1
    25    5   26 1
    26    6   27 1
    27    6   28 1
    28    6   29 1
    29    7   30 1
    30   10   31 1
@<TRIPOS>SUBSTRUCTURE
     1 <0>         1 GROUP 0 A     ****
