@<TRIPOS>MOLECULE
AlkEthOH_c836
   20    19     1     0     0
SMALL
USER_CHARGES

@<TRIPOS>ATOM
      1 C1          1.5246   -0.7573    2.1451 CT        1 <0>       -0.12225
      2 C2         -0.5207    2.0464   -1.0290 CT        1 <0>       -0.13367
      3 C3         -1.7922   -0.0395   -0.5265 CT        1 <0>       -0.13367
      4 C4          0.6768   -0.8825    0.8889 CT        1 <0>        0.34017
      5 C5         -0.3966    0.5476   -0.7507 CT        1 <0>        0.35356
      6 O1          1.4255   -1.6468   -0.0499 OH        1 <0>       -0.61869
      7 O2          0.2052   -0.0269   -1.9095 OH        1 <0>       -0.61539
      8 O3          0.4156    0.4403    0.4250 OS        1 <0>       -0.44759
      9 H1          2.4590   -0.2272    1.9354 HC        1 <0>        0.05258
     10 H2          1.7893   -1.7473    2.5338 HC        1 <0>        0.05258
     11 H3          0.9800   -0.2307    2.9352 HC        1 <0>        0.05258
     12 H4          0.4594    2.5061   -1.1956 HC        1 <0>        0.05336
     13 H5         -0.9745    2.5577   -0.1718 HC        1 <0>        0.05336
     14 H6         -1.1608    2.2408   -1.8963 HC        1 <0>        0.05336
     15 H7         -1.7388   -1.1149   -0.3240 HC        1 <0>        0.05336
     16 H8         -2.4391    0.1321   -1.3931 HC        1 <0>        0.05336
     17 H9         -2.2824    0.4109    0.3426 HC        1 <0>        0.05336
     18 H10        -0.2447   -1.4164    1.1403 H2        1 <0>        0.06868
     19 H11         1.5960   -2.5136    0.3547 HO        1 <0>        0.42462
     20 H12        -0.3725    0.1486   -2.6711 HO        1 <0>        0.40633
@<TRIPOS>BOND
     1    1    4 1
     2    2    5 1
     3    3    5 1
     4    4    6 1
     5    4    8 1
     6    5    7 1
     7    5    8 1
     8    1    9 1
     9    1   10 1
    10    1   11 1
    11    2   12 1
    12    2   13 1
    13    2   14 1
    14    3   15 1
    15    3   16 1
    16    3   17 1
    17    4   18 1
    18    6   19 1
    19    7   20 1
@<TRIPOS>SUBSTRUCTURE
     1 <0>         1 GROUP 0 A     ****
