@<TRIPOS>MOLECULE
AlkEthOH_c1283
   16    15     1     0     0
SMALL
USER_CHARGES

@<TRIPOS>ATOM
      1 C1          4.4869    1.1484   -2.8214 CT        1 <0>       -0.09554
      2 C2          1.0116    0.1712    0.4206 CT        1 <0>        0.11923
      3 C3          3.4841    1.7677   -1.8714 CT        1 <0>        0.12996
      4 C4          2.7630    1.7603    0.3811 CT        1 <0>        0.31559
      5 O1          1.3911    1.4995    0.0855 OS        1 <0>       -0.44754
      6 O2          3.6773    1.2212   -0.5734 OS        1 <0>       -0.44840
      7 H1          5.5107    1.3619   -2.5017 HC        1 <0>        0.04382
      8 H2          4.3514    0.0631   -2.8721 HC        1 <0>        0.04382
      9 H3          4.3461    1.5344   -3.8365 HC        1 <0>        0.04382
     10 H4         -0.0429    0.0203    0.1770 H1        1 <0>        0.03600
     11 H5          1.1779    0.0020    1.4875 H1        1 <0>        0.03600
     12 H6          1.6204   -0.5287   -0.1566 H1        1 <0>        0.03600
     13 H7          2.4624    1.5505   -2.1968 H1        1 <0>        0.03148
     14 H8          3.6214    2.8520   -1.8214 H1        1 <0>        0.03148
     15 H9          2.8986    2.8457    0.4467 H2        1 <0>        0.06214
     16 H10         3.0117    1.3462    1.3648 H2        1 <0>        0.06214
@<TRIPOS>BOND
     1    1    3 1
     2    2    5 1
     3    3    6 1
     4    4    5 1
     5    4    6 1
     6    1    7 1
     7    1    8 1
     8    1    9 1
     9    2   10 1
    10    2   11 1
    11    2   12 1
    12    3   13 1
    13    3   14 1
    14    4   15 1
    15    4   16 1
@<TRIPOS>SUBSTRUCTURE
     1 <0>         1 GROUP 0 A     ****
