@<TRIPOS>MOLECULE
AlkEthOH_c1286
   17    16     1     0     0
SMALL
USER_CHARGES

@<TRIPOS>ATOM
      1 C1         -1.4839    1.8002    0.7983 CT        1 <0>        0.12232
      2 C2          0.4644   -1.0207   -0.4925 CT        1 <0>       -0.11293
      3 C3          1.2334   -1.2222    0.8077 CT        1 <0>        0.13724
      4 C4         -0.2140    0.3462   -0.5740 CT        1 <0>        0.33311
      5 O1          1.8357   -2.5100    0.8151 OH        1 <0>       -0.60396
      6 O2         -0.8588    0.4231   -1.8428 OH        1 <0>       -0.62548
      7 O3         -1.1428    0.4523    0.5055 OS        1 <0>       -0.42500
      8 H1         -2.1943    1.8251    1.6283 H1        1 <0>        0.03811
      9 H2         -1.9249    2.2659   -0.0867 H1        1 <0>        0.03811
     10 H3         -0.5785    2.3429    1.0802 H1        1 <0>        0.03811
     11 H4         -0.2858   -1.8170   -0.5881 HC        1 <0>        0.06897
     12 H5          1.1360   -1.1582   -1.3494 HC        1 <0>        0.06897
     13 H6          2.0211   -0.4708    0.9237 H1        1 <0>        0.03311
     14 H7          0.5693   -1.1599    1.6749 H1        1 <0>        0.03311
     15 H8          0.5457    1.1353   -0.5080 H2        1 <0>        0.03806
     16 H9          2.3111   -2.5915    1.6575 HO        1 <0>        0.40296
     17 H10        -0.1706    0.3240   -2.5224 HO        1 <0>        0.41519
@<TRIPOS>BOND
     1    1    7 1
     2    2    3 1
     3    2    4 1
     4    3    5 1
     5    4    6 1
     6    4    7 1
     7    1    8 1
     8    1    9 1
     9    1   10 1
    10    2   11 1
    11    2   12 1
    12    3   13 1
    13    3   14 1
    14    4   15 1
    15    5   16 1
    16    6   17 1
@<TRIPOS>SUBSTRUCTURE
     1 <0>         1 GROUP 0 A     ****
