@<TRIPOS>MOLECULE
AlkEthOH_c1257
   17    16     1     0     0
SMALL
USER_CHARGES

@<TRIPOS>ATOM
      1 C1          0.1577   -2.4541   -2.1027 CT        1 <0>       -0.09636
      2 C2          0.8529    0.3292    1.8239 CT        1 <0>        0.13332
      3 C3          0.2053   -1.0247   -1.6065 CT        1 <0>        0.13822
      4 C4         -0.7045    0.4396    0.0379 CT        1 <0>        0.52249
      5 O1         -1.2239    1.3858   -0.8989 OH        1 <0>       -0.62030
      6 O2          0.5565    0.8844    0.5492 OS        1 <0>       -0.48996
      7 O3         -0.6809   -0.8878   -0.5033 OS        1 <0>       -0.44670
      8 H1          0.4672   -3.1501   -1.3180 HC        1 <0>        0.04317
      9 H2         -0.8542   -2.7161   -2.4287 HC        1 <0>        0.04317
     10 H3          0.8148   -2.5838   -2.9691 HC        1 <0>        0.04317
     11 H4          1.8220    0.6995    2.1671 H1        1 <0>        0.03902
     12 H5          0.8722   -0.7612    1.7518 H1        1 <0>        0.03902
     13 H6          0.0781    0.6319    2.5323 H1        1 <0>        0.03902
     14 H7         -0.1053   -0.3339   -2.3960 H1        1 <0>        0.04285
     15 H8          1.2168   -0.7649   -1.2804 H1        1 <0>        0.04285
     16 H9         -1.4167    0.4133    0.8716 H3        1 <0>        0.09136
     17 H10        -1.3348    2.2314   -0.4322 HO        1 <0>        0.43566
@<TRIPOS>BOND
     1    1    3 1
     2    2    6 1
     3    3    7 1
     4    4    5 1
     5    4    6 1
     6    4    7 1
     7    1    8 1
     8    1    9 1
     9    1   10 1
    10    2   11 1
    11    2   12 1
    12    2   13 1
    13    3   14 1
    14    3   15 1
    15    4   16 1
    16    5   17 1
@<TRIPOS>SUBSTRUCTURE
     1 <0>         1 GROUP 0 A     ****
