@<TRIPOS>MOLECULE
AlkEthOH_c78
   23    22     1     0     0
SMALL
USER_CHARGES

@<TRIPOS>ATOM
      1 C1         -1.1206    0.5695    2.2367 CT        1 <0>       -0.12663
      2 C2          0.3608   -1.6464    0.6577 CT        1 <0>       -0.12601
      3 C3          0.9006    0.0681   -1.1281 CT        1 <0>       -0.11056
      4 C4         -0.1154   -0.4043   -2.1608 CT        1 <0>        0.13953
      5 C5         -0.7818    0.6245    0.7483 CT        1 <0>        0.15711
      6 C6          0.4998   -0.1507    0.3489 CT        1 <0>        0.16015
      7 O1          0.4109   -0.1572   -3.4596 OH        1 <0>       -0.60167
      8 O2         -0.6587    2.0008    0.3826 OH        1 <0>       -0.59559
      9 O3          1.5971    0.3176    1.1473 OH        1 <0>       -0.59303
     10 H1         -0.2829    0.9573    2.8273 HC        1 <0>        0.04936
     11 H2         -1.2835   -0.4599    2.5731 HC        1 <0>        0.04936
     12 H3         -2.0070    1.1631    2.4753 HC        1 <0>        0.04936
     13 H4          0.0767   -1.8011    1.7052 HC        1 <0>        0.04388
     14 H5          1.2901   -2.1924    0.4688 HC        1 <0>        0.04388
     15 H6         -0.4366   -2.1049    0.0629 HC        1 <0>        0.04388
     16 H7          1.8633   -0.4267   -1.3209 HC        1 <0>        0.06911
     17 H8          1.1241    1.1294   -1.3043 HC        1 <0>        0.06911
     18 H9         -0.3070   -1.4771   -2.0713 H1        1 <0>        0.02322
     19 H10        -1.0599    0.1389   -2.0698 H1        1 <0>        0.02322
     20 H11        -1.6380    0.2307    0.1893 H1        1 <0>        0.03043
     21 H12        -0.2552   -0.4670   -4.0935 HO        1 <0>        0.39851
     22 H13        -1.5155    2.4105    0.5726 HO        1 <0>        0.40233
     23 H14         2.3676   -0.1949    0.8671 HO        1 <0>        0.40105
@<TRIPOS>BOND
     1    1    5 1
     2    2    6 1
     3    3    4 1
     4    3    6 1
     5    4    7 1
     6    5    6 1
     7    5    8 1
     8    6    9 1
     9    1   10 1
    10    1   11 1
    11    1   12 1
    12    2   13 1
    13    2   14 1
    14    2   15 1
    15    3   16 1
    16    3   17 1
    17    4   18 1
    18    4   19 1
    19    5   20 1
    20    7   21 1
    21    8   22 1
    22    9   23 1
@<TRIPOS>SUBSTRUCTURE
     1 <0>         1 GROUP 0 A     ****
