@<TRIPOS>MOLECULE
AlkEthOH_c1152
   27    26     1     0     0
SMALL
USER_CHARGES

@<TRIPOS>ATOM
      1 C1         -3.8423   -6.0279   -2.3489 CT        1 <0>       -0.09170
      2 C2         -1.0214    0.8045   -2.3901 CT        1 <0>       -0.08598
      3 C3          0.4792   -1.2018   -2.4664 CT        1 <0>       -0.08598
      4 C4         -0.7910   -0.6603   -0.3744 CT        1 <0>       -0.08598
      5 C5         -2.7230   -5.0988   -1.9147 CT        1 <0>       -0.08559
      6 C6         -2.9432   -3.6776   -2.4098 CT        1 <0>        0.13168
      7 C7         -2.0056   -1.5227   -2.4157 CT        1 <0>        0.13729
      8 C8         -0.8419   -0.6460   -1.9115 CT        1 <0>       -0.05319
      9 O1         -1.8564   -2.8685   -1.9816 OS        1 <0>       -0.42343
     10 H1         -4.8113   -5.6707   -1.9859 HC        1 <0>        0.03513
     11 H2         -3.8881   -6.0828   -3.4410 HC        1 <0>        0.03513
     12 H3         -3.6831   -7.0403   -1.9644 HC        1 <0>        0.03513
     13 H4         -1.9565    1.2315   -2.0109 HC        1 <0>        0.03727
     14 H5         -1.0512    0.8581   -3.4844 HC        1 <0>        0.03727
     15 H6         -0.2000    1.4454   -2.0517 HC        1 <0>        0.03727
     16 H7          0.6395   -2.2368   -2.1439 HC        1 <0>        0.03727
     17 H8          0.4858   -1.1896   -3.5621 HC        1 <0>        0.03727
     18 H9          1.3337   -0.6084   -2.1219 HC        1 <0>        0.03727
     19 H10        -0.6635   -1.6762    0.0154 HC        1 <0>        0.03727
     20 H11        -1.7152   -0.2565    0.0546 HC        1 <0>        0.03727
     21 H12         0.0413   -0.0524   -0.0020 HC        1 <0>        0.03727
     22 H13        -1.7623   -5.4737   -2.2876 HC        1 <0>        0.05242
     23 H14        -2.6420   -5.0990   -0.8211 HC        1 <0>        0.05242
     24 H15        -2.9905   -3.6475   -3.5030 H1        1 <0>        0.02364
     25 H16        -3.8696   -3.2609   -2.0018 H1        1 <0>        0.02364
     26 H17        -2.0458   -1.5219   -3.5109 H1        1 <0>        0.02497
     27 H18        -2.9643   -1.1489   -2.0389 H1        1 <0>        0.02497
@<TRIPOS>BOND
     1    1    5 1
     2    2    8 1
     3    3    8 1
     4    4    8 1
     5    5    6 1
     6    6    9 1
     7    7    8 1
     8    7    9 1
     9    1   10 1
    10    1   11 1
    11    1   12 1
    12    2   13 1
    13    2   14 1
    14    2   15 1
    15    3   16 1
    16    3   17 1
    17    3   18 1
    18    4   19 1
    19    4   20 1
    20    4   21 1
    21    5   22 1
    22    5   23 1
    23    6   24 1
    24    6   25 1
    25    7   26 1
    26    7   27 1
@<TRIPOS>SUBSTRUCTURE
     1 <0>         1 GROUP 0 A     ****
