@<TRIPOS>MOLECULE
AlkEthOH_c39
   25    24     1     0     0
SMALL
USER_CHARGES

@<TRIPOS>ATOM
      1 C1          0.2773   -2.2700   -2.3237 CT        1 <0>       -0.13361
      2 C2          2.2535    0.8781   -0.1221 CT        1 <0>       -0.08333
      3 C3          0.5377    0.9032    1.6785 CT        1 <0>       -0.08333
      4 C4          0.0466    1.9730   -0.5292 CT        1 <0>       -0.08333
      5 C5          0.3713   -0.7916   -1.9510 CT        1 <0>        0.10460
      6 C6          0.2097   -0.5718   -0.4327 CT        1 <0>        0.15950
      7 C7          0.7355    0.7786    0.1565 CT        1 <0>       -0.07602
      8 O1         -0.6448   -0.0944   -2.6632 OH        1 <0>       -0.60919
      9 O2         -1.1647   -0.7556   -0.0775 OH        1 <0>       -0.60006
     10 H1         -0.6791   -2.7019   -2.0098 HC        1 <0>        0.04725
     11 H2          0.3295   -2.3912   -3.4113 HC        1 <0>        0.04725
     12 H3          1.0914   -2.8461   -1.8734 HC        1 <0>        0.04725
     13 H4          2.4729    0.7971   -1.1923 HC        1 <0>        0.03648
     14 H5          2.6582    1.8325    0.2330 HC        1 <0>        0.03648
     15 H6          2.8040    0.0780    0.3862 HC        1 <0>        0.03648
     16 H7         -0.5257    0.8396    1.9395 HC        1 <0>        0.03648
     17 H8          0.9070    1.8601    2.0607 HC        1 <0>        0.03648
     18 H9          1.0402    0.0987    2.2231 HC        1 <0>        0.03648
     19 H10        -1.0369    1.9526   -0.3635 HC        1 <0>        0.03648
     20 H11         0.4235    2.9245   -0.1378 HC        1 <0>        0.03648
     21 H12         0.2054    1.9651   -1.6126 HC        1 <0>        0.03648
     22 H13         1.3413   -0.4102   -2.2852 H1        1 <0>        0.04668
     23 H14         0.7561   -1.3811    0.0696 H1        1 <0>        0.06479
     24 H15        -0.4699   -0.2360   -3.6070 HO        1 <0>        0.40633
     25 H16        -1.3888   -1.6638   -0.3266 HO        1 <0>        0.41690
@<TRIPOS>BOND
     1    1    5 1
     2    2    7 1
     3    3    7 1
     4    4    7 1
     5    5    6 1
     6    5    8 1
     7    6    7 1
     8    6    9 1
     9    1   10 1
    10    1   11 1
    11    1   12 1
    12    2   13 1
    13    2   14 1
    14    2   15 1
    15    3   16 1
    16    3   17 1
    17    3   18 1
    18    4   19 1
    19    4   20 1
    20    4   21 1
    21    5   22 1
    22    6   23 1
    23    8   24 1
    24    9   25 1
@<TRIPOS>SUBSTRUCTURE
     1 <0>         1 GROUP 0 A     ****
