@<TRIPOS>MOLECULE
AlkEthOH_c353
   30    29     1     0     0
SMALL
USER_CHARGES

@<TRIPOS>ATOM
      1 C1         -0.5941   -0.2906    0.8806 CT        1 <0>       -0.09077
      2 C2         -2.2293    1.4651    0.1725 CT        1 <0>       -0.09077
      3 C3         -3.2960   -1.0034    4.8826 CT        1 <0>       -0.08742
      4 C4         -3.7265   -3.3601    4.1949 CT        1 <0>       -0.08742
      5 C5         -5.2582   -1.5273    3.4360 CT        1 <0>       -0.08742
      6 C6         -2.9311   -0.2089    1.9147 CT        1 <0>       -0.10480
      7 C7         -2.0739    0.0173    0.6480 CT        1 <0>       -0.06500
      8 C8         -2.9006   -1.6505    2.4598 CT        1 <0>        0.14815
      9 C9         -3.7901   -1.8954    3.7220 CT        1 <0>       -0.08559
     10 O1         -3.3003   -2.5211    1.3988 OH        1 <0>       -0.59595
     11 H1         -0.1785    0.3359    1.6770 HC        1 <0>        0.03364
     12 H2         -0.0120   -0.1096   -0.0296 HC        1 <0>        0.03364
     13 H3         -0.4432   -1.3387    1.1554 HC        1 <0>        0.03364
     14 H4         -1.8813    2.1730    0.9324 HC        1 <0>        0.03364
     15 H5         -1.6524    1.6387   -0.7422 HC        1 <0>        0.03364
     16 H6         -3.2778    1.6920   -0.0482 HC        1 <0>        0.03364
     17 H7         -3.3193    0.0557    4.6027 HC        1 <0>        0.03661
     18 H8         -3.9267   -1.1242    5.7710 HC        1 <0>        0.03661
     19 H9         -2.2717   -1.2524    5.1795 HC        1 <0>        0.03661
     20 H10        -4.0646   -4.0524    3.4174 HC        1 <0>        0.03661
     21 H11        -2.7092   -3.6464    4.4827 HC        1 <0>        0.03661
     22 H12        -4.3711   -3.5185    5.0676 HC        1 <0>        0.03661
     23 H13        -5.6648   -2.1317    2.6167 HC        1 <0>        0.03661
     24 H14        -5.8863   -1.6982    4.3172 HC        1 <0>        0.03661
     25 H15        -5.3653   -0.4787    3.1405 HC        1 <0>        0.03661
     26 H16        -2.6032    0.4920    2.6904 HC        1 <0>        0.04444
     27 H17        -3.9642    0.0530    1.6562 HC        1 <0>        0.04444
     28 H18        -2.4386   -0.6343   -0.1554 HC        1 <0>        0.05620
     29 H19        -1.8650   -1.9048    2.7149 H1        1 <0>        0.07489
     30 H20        -4.1950   -2.2493    1.1465 HO        1 <0>        0.39569
@<TRIPOS>BOND
     1    1    7 1
     2    2    7 1
     3    3    9 1
     4    4    9 1
     5    5    9 1
     6    6    7 1
     7    6    8 1
     8    8    9 1
     9    8   10 1
    10    1   11 1
    11    1   12 1
    12    1   13 1
    13    2   14 1
    14    2   15 1
    15    2   16 1
    16    3   17 1
    17    3   18 1
    18    3   19 1
    19    4   20 1
    20    4   21 1
    21    4   22 1
    22    5   23 1
    23    5   24 1
    24    5   25 1
    25    6   26 1
    26    6   27 1
    27    7   28 1
    28    8   29 1
    29   10   30 1
@<TRIPOS>SUBSTRUCTURE
     1 <0>         1 GROUP 0 A     ****
