@<TRIPOS>MOLECULE
AlkEthOH_c666
   28    27     1     0     0
SMALL
USER_CHARGES

@<TRIPOS>ATOM
      1 C1          0.3614   -0.7052   -2.1290 CT        1 <0>       -0.09144
      2 C2          2.6155   -0.8423    2.3526 CT        1 <0>       -0.13005
      3 C3         -2.9000    0.3917   -0.6286 CT        1 <0>       -0.13005
      4 C4          1.4181   -0.6603    0.1419 CT        1 <0>       -0.07133
      5 C5         -0.4271    1.0161   -0.4277 CT        1 <0>       -0.07133
      6 C6          0.1071   -0.4145   -0.6447 CT        1 <0>       -0.06160
      7 C7          1.3023   -0.4929    1.6623 CT        1 <0>        0.14026
      8 C8         -1.7863    1.3326   -1.0678 CT        1 <0>        0.14026
      9 O1          0.2809   -1.3546    2.1541 OH        1 <0>       -0.60381
     10 O2         -2.1541    2.6657   -0.7060 OH        1 <0>       -0.60381
     11 H1          1.1055   -0.0179   -2.5452 HC        1 <0>        0.03356
     12 H2          0.7298   -1.7275   -2.2686 HC        1 <0>        0.03356
     13 H3         -0.5562   -0.6144   -2.7178 HC        1 <0>        0.03356
     14 H4          2.9111   -1.8700    2.1152 HC        1 <0>        0.04275
     15 H5          2.5309   -0.7477    3.4394 HC        1 <0>        0.04275
     16 H6          3.4271   -0.1942    2.0040 HC        1 <0>        0.04275
     17 H7         -3.0125    0.3736    0.4588 HC        1 <0>        0.04275
     18 H8         -3.8574    0.6821   -1.0751 HC        1 <0>        0.04275
     19 H9         -2.6920   -0.6286   -0.9687 HC        1 <0>        0.04275
     20 H10         2.2044    0.0047   -0.2378 HC        1 <0>        0.05002
     21 H11         1.7443   -1.6885   -0.0660 HC        1 <0>        0.05002
     22 H12         0.3080    1.7417   -0.8016 HC        1 <0>        0.05002
     23 H13        -0.5071    1.2204    0.6471 HC        1 <0>        0.05002
     24 H14        -0.6425   -1.1321   -0.2903 HC        1 <0>        0.06764
     25 H15         1.0322    0.5366    1.9166 H1        1 <0>        0.03190
     26 H16        -1.7067    1.3216   -2.1589 H1        1 <0>        0.03190
     27 H17         0.2255   -1.2015    3.1104 HO        1 <0>        0.39710
     28 H18        -2.9828    2.8547   -1.1704 HO        1 <0>        0.39710
@<TRIPOS>BOND
     1    1    6 1
     2    2    7 1
     3    3    8 1
     4    4    6 1
     5    4    7 1
     6    5    6 1
     7    5    8 1
     8    7    9 1
     9    8   10 1
    10    1   11 1
    11    1   12 1
    12    1   13 1
    13    2   14 1
    14    2   15 1
    15    2   16 1
    16    3   17 1
    17    3   18 1
    18    3   19 1
    19    4   20 1
    20    4   21 1
    21    5   22 1
    22    5   23 1
    23    6   24 1
    24    7   25 1
    25    8   26 1
    26    9   27 1
    27   10   28 1
@<TRIPOS>SUBSTRUCTURE
     1 <0>         1 GROUP 0 A     ****
