@<TRIPOS>MOLECULE
AlkEthOH_c1158
   21    20     1     0     0
SMALL
USER_CHARGES

@<TRIPOS>ATOM
      1 C1         -1.2014   -0.8990    2.8898 CT        1 <0>       -0.09347
      2 C2          6.0775   -2.0271    3.3154 CT        1 <0>       -0.09340
      3 C3          0.1100   -0.6530    3.6139 CT        1 <0>       -0.08473
      4 C4          4.8248   -1.4002    3.9005 CT        1 <0>       -0.08473
      5 C5          1.2749   -1.3494    2.9273 CT        1 <0>        0.13087
      6 C6          3.5918   -1.7167    3.0680 CT        1 <0>        0.13087
      7 O1          2.4629   -1.0899    3.6622 OS        1 <0>       -0.42495
      8 H1         -1.1454   -0.5586    1.8509 HC        1 <0>        0.03469
      9 H2         -1.4375   -1.9677    2.8845 HC        1 <0>        0.03469
     10 H3         -2.0254   -0.3716    3.3806 HC        1 <0>        0.03469
     11 H4          5.9713   -3.1137    3.2353 HC        1 <0>        0.03469
     12 H5          6.2685   -1.6299    2.3136 HC        1 <0>        0.03469
     13 H6          6.9514   -1.8119    3.9383 HC        1 <0>        0.03469
     14 H7          0.0333   -1.0004    4.6512 HC        1 <0>        0.05384
     15 H8          0.3074    0.4242    3.6712 HC        1 <0>        0.05384
     16 H9          4.9512   -0.3133    3.9724 HC        1 <0>        0.05384
     17 H10         4.6760   -1.7543    4.9277 HC        1 <0>        0.05384
     18 H11         1.1169   -2.4321    2.8914 H1        1 <0>        0.02401
     19 H12         1.4076   -0.9751    1.9072 H1        1 <0>        0.02401
     20 H13         3.7024   -1.3392    2.0465 H1        1 <0>        0.02401
     21 H14         3.4117   -2.7959    3.0311 H1        1 <0>        0.02401
@<TRIPOS>BOND
     1    1    3 1
     2    2    4 1
     3    3    5 1
     4    4    6 1
     5    5    7 1
     6    6    7 1
     7    1    8 1
     8    1    9 1
     9    1   10 1
    10    2   11 1
    11    2   12 1
    12    2   13 1
    13    3   14 1
    14    3   15 1
    15    4   16 1
    16    4   17 1
    17    5   18 1
    18    5   19 1
    19    6   20 1
    20    6   21 1
@<TRIPOS>SUBSTRUCTURE
     1 <0>         1 GROUP 0 A     ****
