@<TRIPOS>MOLECULE
AlkEthOH_c961
   17    16     1     0     0
SMALL
USER_CHARGES

@<TRIPOS>ATOM
      1 C1         -0.2303   -0.8989   -0.6919 CT        1 <0>       -0.09149
      2 C2          2.6687   -1.6484   -1.3707 CT        1 <0>       -0.08997
      3 C3          2.5201   -0.0904   -3.3235 CT        1 <0>       -0.08997
      4 C4          0.4312   -0.6227   -2.0345 CT        1 <0>       -0.07663
      5 C5          1.9539   -0.4226   -1.9410 CT        1 <0>       -0.06660
      6 H1         -0.0096   -0.0869    0.0086 HC        1 <0>        0.03249
      7 H2          0.1395   -1.8322   -0.2555 HC        1 <0>        0.03249
      8 H3         -1.3179   -0.9661   -0.7858 HC        1 <0>        0.03249
      9 H4          2.4988   -2.5328   -1.9939 HC        1 <0>        0.03292
     10 H5          2.3250   -1.8742   -0.3567 HC        1 <0>        0.03292
     11 H6          3.7492   -1.4768   -1.3156 HC        1 <0>        0.03292
     12 H7          2.3476   -0.9086   -4.0310 HC        1 <0>        0.03292
     13 H8          3.5990    0.0895   -3.2696 HC        1 <0>        0.03292
     14 H9          2.0524    0.8131   -3.7291 HC        1 <0>        0.03292
     15 H10         0.2003   -1.4445   -2.7233 HC        1 <0>        0.03705
     16 H11        -0.0236    0.2810   -2.4589 HC        1 <0>        0.03705
     17 H12         2.1567    0.4305   -1.2810 HC        1 <0>        0.04557
@<TRIPOS>BOND
     1    1    4 1
     2    2    5 1
     3    3    5 1
     4    4    5 1
     5    1    6 1
     6    1    7 1
     7    1    8 1
     8    2    9 1
     9    2   10 1
    10    2   11 1
    11    3   12 1
    12    3   13 1
    13    3   14 1
    14    4   15 1
    15    4   16 1
    16    5   17 1
@<TRIPOS>SUBSTRUCTURE
     1 <0>         1 GROUP 0 A     ****
