@<TRIPOS>MOLECULE
AlkEthOH_c797
   20    19     1     0     0
SMALL
USER_CHARGES

@<TRIPOS>ATOM
      1 C1         -0.6062    0.9264    0.6648 CT        1 <0>       -0.13198
      2 C2         -0.5176   -2.3877    5.8230 CT        1 <0>        0.13074
      3 C3         -0.9866   -2.1705    4.3972 CT        1 <0>        0.11794
      4 C4         -0.8331   -0.7088    2.5635 CT        1 <0>        0.13193
      5 C5         -0.1831    0.5832    2.0850 CT        1 <0>        0.13881
      6 O1          0.9008   -2.4941    5.8338 OH        1 <0>       -0.59969
      7 O2         -0.5895    1.6384    2.9552 OH        1 <0>       -0.58891
      8 O3         -0.4246   -0.9632    3.9033 OS        1 <0>       -0.41046
      9 H1         -1.6967    1.0050    0.5978 HC        1 <0>        0.04409
     10 H2         -0.1694    1.8751    0.3381 HC        1 <0>        0.04409
     11 H3         -0.3043    0.1399   -0.0355 HC        1 <0>        0.04409
     12 H4         -0.9318   -3.3115    6.2381 H1        1 <0>        0.04032
     13 H5         -0.8024   -1.5400    6.4530 H1        1 <0>        0.04032
     14 H6         -2.0767   -2.0836    4.3493 H1        1 <0>        0.03800
     15 H7         -0.6537   -2.9913    3.7554 H1        1 <0>        0.03800
     16 H8         -1.9253   -0.6300    2.5545 H1        1 <0>        0.03613
     17 H9         -0.5228   -1.5580    1.9467 H1        1 <0>        0.03613
     18 H10         0.9076    0.5046    2.1521 H1        1 <0>        0.04983
     19 H11         1.1632   -2.6318    6.7580 HO        1 <0>        0.40255
     20 H12        -0.1450    2.4403    2.6406 HO        1 <0>        0.39807
@<TRIPOS>BOND
     1    1    5 1
     2    2    3 1
     3    2    6 1
     4    3    8 1
     5    4    5 1
     6    4    8 1
     7    5    7 1
     8    1    9 1
     9    1   10 1
    10    1   11 1
    11    2   12 1
    12    2   13 1
    13    3   14 1
    14    3   15 1
    15    4   16 1
    16    4   17 1
    17    5   18 1
    18    6   19 1
    19    7   20 1
@<TRIPOS>SUBSTRUCTURE
     1 <0>         1 GROUP 0 A     ****
