@<TRIPOS>MOLECULE
AlkEthOH_c939
   24    23     1     0     0
SMALL
USER_CHARGES

@<TRIPOS>ATOM
      1 C1         -0.6454    0.3354    0.8029 CT        1 <0>       -0.09119
      2 C2         -4.3585   -1.6757    2.2797 CT        1 <0>       -0.09651
      3 C3         -2.1689   -0.4444   -1.7717 CT        1 <0>       -0.10266
      4 C4         -4.0814    0.9472   -0.9518 CT        1 <0>       -0.10266
      5 C5         -1.8896    1.0450    0.2809 CT        1 <0>       -0.10133
      6 C6         -3.9192   -0.4823    1.4583 CT        1 <0>        0.12641
      7 C7         -2.8429    0.1483   -0.5334 CT        1 <0>        0.15288
      8 O1         -3.2783   -0.9433    0.2800 OS        1 <0>       -0.41977
      9 H1         -0.9363   -0.5295    1.4083 HC        1 <0>        0.03753
     10 H2         -0.0456    0.9936    1.4379 HC        1 <0>        0.03753
     11 H3         -0.0168   -0.0258   -0.0166 HC        1 <0>        0.03753
     12 H4         -5.0629   -2.2969    1.7196 HC        1 <0>        0.04308
     13 H5         -3.4959   -2.2874    2.5637 HC        1 <0>        0.04308
     14 H6         -4.8370   -1.3492    3.2091 HC        1 <0>        0.04308
     15 H7         -1.2780   -1.0231   -1.5075 HC        1 <0>        0.04324
     16 H8         -2.8545   -1.0891   -2.3317 HC        1 <0>        0.04324
     17 H9         -1.8702    0.3487   -2.4675 HC        1 <0>        0.04324
     18 H10        -4.5890    1.3863   -0.0869 HC        1 <0>        0.04324
     19 H11        -3.8108    1.7535   -1.6432 HC        1 <0>        0.04324
     20 H12        -4.7957    0.3107   -1.4865 HC        1 <0>        0.04324
     21 H13        -1.5798    1.9073   -0.3223 HC        1 <0>        0.04153
     22 H14        -2.4272    1.4407    1.1525 HC        1 <0>        0.04153
     23 H15        -3.2149    0.1348    2.0242 H1        1 <0>        0.02525
     24 H16        -4.7823    0.1273    1.1747 H1        1 <0>        0.02525
@<TRIPOS>BOND
     1    1    5 1
     2    2    6 1
     3    3    7 1
     4    4    7 1
     5    5    7 1
     6    6    8 1
     7    7    8 1
     8    1    9 1
     9    1   10 1
    10    1   11 1
    11    2   12 1
    12    2   13 1
    13    2   14 1
    14    3   15 1
    15    3   16 1
    16    3   17 1
    17    4   18 1
    18    4   19 1
    19    4   20 1
    20    5   21 1
    21    5   22 1
    22    6   23 1
    23    6   24 1
@<TRIPOS>SUBSTRUCTURE
     1 <0>         1 GROUP 0 A     ****
