@<TRIPOS>MOLECULE
AlkEthOH_c933
   30    29     1     0     0
SMALL
USER_CHARGES

@<TRIPOS>ATOM
      1 C1         -2.5126    1.6621    1.5279 CT        1 <0>       -0.08961
      2 C2         -0.9377   -0.8819    0.7731 CT        1 <0>       -0.10873
      3 C3         -2.5292   -2.3587    2.0362 CT        1 <0>       -0.10873
      4 C4         -1.9987   -2.8590   -0.3672 CT        1 <0>       -0.10873
      5 C5         -2.1689   -0.4444   -1.7717 CT        1 <0>       -0.10424
      6 C6         -4.0814    0.9472   -0.9518 CT        1 <0>       -0.10424
      7 C7         -1.8896    1.0450    0.2809 CT        1 <0>       -0.10109
      8 C8         -2.1862   -1.7574    0.6750 CT        1 <0>        0.16207
      9 C9         -2.8429    0.1483   -0.5334 CT        1 <0>        0.16665
     10 O1         -3.2783   -0.9433    0.2800 OS        1 <0>       -0.42646
     11 H1         -3.4048    2.2349    1.2541 HC        1 <0>        0.03692
     12 H2         -1.8207    2.3492    2.0233 HC        1 <0>        0.03692
     13 H3         -2.8152    0.8943    2.2463 HC        1 <0>        0.03692
     14 H4         -0.6881   -0.4484   -0.2020 HC        1 <0>        0.04173
     15 H5         -1.0719   -0.0670    1.4918 HC        1 <0>        0.04173
     16 H6         -0.0680   -1.4742    1.0798 HC        1 <0>        0.04173
     17 H7         -3.4244   -2.9876    1.9705 HC        1 <0>        0.04173
     18 H8         -2.7576   -1.5718    2.7641 HC        1 <0>        0.04173
     19 H9         -1.7070   -2.9658    2.4285 HC        1 <0>        0.04173
     20 H10        -2.8941   -3.4871   -0.4378 HC        1 <0>        0.04173
     21 H11        -1.7882   -2.4447   -1.3585 HC        1 <0>        0.04173
     22 H12        -1.1751   -3.5252   -0.0861 HC        1 <0>        0.04173
     23 H13        -1.2780   -1.0231   -1.5075 HC        1 <0>        0.04242
     24 H14        -2.8545   -1.0891   -2.3317 HC        1 <0>        0.04242
     25 H15        -1.8702    0.3487   -2.4675 HC        1 <0>        0.04242
     26 H16        -4.5890    1.3863   -0.0869 HC        1 <0>        0.04242
     27 H17        -3.8108    1.7535   -1.6432 HC        1 <0>        0.04242
     28 H18        -4.7957    0.3107   -1.4865 HC        1 <0>        0.04242
     29 H19        -0.9986    0.4759    0.5735 HC        1 <0>        0.04113
     30 H20        -1.5467    1.8724   -0.3539 HC        1 <0>        0.04113
@<TRIPOS>BOND
     1    1    7 1
     2    2    8 1
     3    3    8 1
     4    4    8 1
     5    5    9 1
     6    6    9 1
     7    7    9 1
     8    8   10 1
     9    9   10 1
    10    1   11 1
    11    1   12 1
    12    1   13 1
    13    2   14 1
    14    2   15 1
    15    2   16 1
    16    3   17 1
    17    3   18 1
    18    3   19 1
    19    4   20 1
    20    4   21 1
    21    4   22 1
    22    5   23 1
    23    5   24 1
    24    5   25 1
    25    6   26 1
    26    6   27 1
    27    6   28 1
    28    7   29 1
    29    7   30 1
@<TRIPOS>SUBSTRUCTURE
     1 <0>         1 GROUP 0 A     ****
