@<TRIPOS>MOLECULE
AlkEthOH_c171
   18    17     1     0     0
SMALL
USER_CHARGES

@<TRIPOS>ATOM
      1 C1         -0.7980   -0.6513   -0.3742 CT        1 <0>       -0.08564
      2 C2         -1.0504    0.7940   -2.4065 CT        1 <0>       -0.08564
      3 C3          0.4975   -1.1771   -2.4496 CT        1 <0>       -0.08564
      4 C4         -2.0056   -1.5227   -2.4157 CT        1 <0>        0.13674
      5 C5         -0.8419   -0.6460   -1.9115 CT        1 <0>       -0.05441
      6 O1         -2.0610   -1.5301   -3.8366 OH        1 <0>       -0.60081
      7 H1         -0.6501   -1.6659    0.0121 HC        1 <0>        0.03726
      8 H2         -1.7337   -0.2679    0.0485 HC        1 <0>        0.03726
      9 H3          0.0162   -0.0261    0.0081 HC        1 <0>        0.03726
     10 H4         -1.0866    0.8348   -3.5010 HC        1 <0>        0.03726
     11 H5         -1.9892    1.2123   -2.0264 HC        1 <0>        0.03726
     12 H6         -0.2362    1.4481   -2.0747 HC        1 <0>        0.03726
     13 H7          0.5146   -1.1923   -3.5449 HC        1 <0>        0.03726
     14 H8          0.6840   -2.2001   -2.1031 HC        1 <0>        0.03726
     15 H9          1.3331   -0.5543   -2.1108 HC        1 <0>        0.03726
     16 H10        -2.9646   -1.1479   -2.0407 H1        1 <0>        0.02141
     17 H11        -1.8872   -2.5577   -2.0754 H1        1 <0>        0.02141
     18 H12        -2.8098   -2.0961   -4.0841 HO        1 <0>        0.39724
@<TRIPOS>BOND
     1    1    5 1
     2    2    5 1
     3    3    5 1
     4    4    5 1
     5    4    6 1
     6    1    7 1
     7    1    8 1
     8    1    9 1
     9    2   10 1
    10    2   11 1
    11    2   12 1
    12    3   13 1
    13    3   14 1
    14    3   15 1
    15    4   16 1
    16    4   17 1
    17    6   18 1
@<TRIPOS>SUBSTRUCTURE
     1 <0>         1 GROUP 0 A     ****
