@<TRIPOS>MOLECULE
AlkEthOH_c441
   25    24     1     0     0
SMALL
USER_CHARGES

@<TRIPOS>ATOM
      1 C1         -1.0311   -1.6486    1.9539 CT        1 <0>       -0.09230
      2 C2          0.6788   -0.9363    0.2704 CT        1 <0>       -0.09230
      3 C3         -4.9341   -5.2912   -1.9797 CT        1 <0>        0.11679
      4 C4         -1.3044   -2.3762   -0.4336 CT        1 <0>       -0.10741
      5 C5         -3.2044   -3.8506   -1.3050 CT        1 <0>        0.12943
      6 C6         -0.2887   -2.0486    0.6755 CT        1 <0>       -0.06969
      7 C7         -2.2797   -3.5213   -0.1374 CT        1 <0>        0.14016
      8 O1         -1.4880   -4.6792    0.1516 OH        1 <0>       -0.58672
      9 O2         -4.0385   -4.9444   -0.9339 OS        1 <0>       -0.41128
     10 H1         -1.6375   -0.7520    1.7875 HC        1 <0>        0.03481
     11 H2         -0.3248   -1.4274    2.7610 HC        1 <0>        0.03481
     12 H3         -1.6968   -2.4489    2.2948 HC        1 <0>        0.03481
     13 H4          0.1426   -0.0126    0.0278 HC        1 <0>        0.03481
     14 H5          1.3798   -0.7163    1.0829 HC        1 <0>        0.03481
     15 H6          1.2745   -1.2251   -0.6009 HC        1 <0>        0.03481
     16 H7         -5.5574   -6.1311   -1.6631 H1        1 <0>        0.03223
     17 H8         -4.3654   -5.5620   -2.8729 H1        1 <0>        0.03223
     18 H9         -5.5707   -4.4316   -2.2022 H1        1 <0>        0.03223
     19 H10        -1.8846   -1.4732   -0.6696 HC        1 <0>        0.05080
     20 H11        -0.7663   -2.6144   -1.3618 HC        1 <0>        0.05080
     21 H12        -2.6316   -4.1503   -2.1886 H1        1 <0>        0.03454
     22 H13        -3.8554   -3.0099   -1.5578 H1        1 <0>        0.03454
     23 H14         0.2959   -2.9465    0.9069 HC        1 <0>        0.04891
     24 H15        -2.8613   -3.3123    0.7666 H1        1 <0>        0.04886
     25 H16        -0.9472   -4.4505    0.9210 HO        1 <0>        0.39932
@<TRIPOS>BOND
     1    1    6 1
     2    2    6 1
     3    3    9 1
     4    4    6 1
     5    4    7 1
     6    5    7 1
     7    5    9 1
     8    7    8 1
     9    1   10 1
    10    1   11 1
    11    1   12 1
    12    2   13 1
    13    2   14 1
    14    2   15 1
    15    3   16 1
    16    3   17 1
    17    3   18 1
    18    4   19 1
    19    4   20 1
    20    5   21 1
    21    5   22 1
    22    6   23 1
    23    7   24 1
    24    8   25 1
@<TRIPOS>SUBSTRUCTURE
     1 <0>         1 GROUP 0 A     ****
