@<TRIPOS>MOLECULE
AlkEthOH_c752
   23    22     1     0     0
SMALL
USER_CHARGES

@<TRIPOS>ATOM
      1 C1          0.3447    0.7253   -0.5470 CT        1 <0>       -0.13057
      2 C2          3.8055   -3.4815   -5.3647 CT        1 <0>       -0.12889
      3 C3          1.4087   -0.7635   -2.2846 CT        1 <0>       -0.07691
      4 C4          1.5600   -1.0781   -3.7687 CT        1 <0>        0.13824
      5 C5          0.5256    0.4604   -2.0353 CT        1 <0>        0.14136
      6 C6          2.5705   -2.5975   -5.2785 CT        1 <0>        0.33588
      7 O1         -0.7572    0.2665   -2.6248 OH        1 <0>       -0.60277
      8 O2          1.4469   -3.2864   -5.8186 OH        1 <0>       -0.62145
      9 O3          2.3773   -2.2322   -3.9112 OS        1 <0>       -0.42049
     10 H1         -0.1001   -0.1368   -0.0408 HC        1 <0>        0.04407
     11 H2         -0.2939    1.5993   -0.3773 HC        1 <0>        0.04407
     12 H3          1.3101    0.9458   -0.0790 HC        1 <0>        0.04407
     13 H4          3.6736   -4.3946   -4.7756 HC        1 <0>        0.05299
     14 H5          3.9920   -3.7872   -6.4004 HC        1 <0>        0.05299
     15 H6          4.6944   -2.9483   -5.0136 HC        1 <0>        0.05299
     16 H7          2.4018   -0.6112   -1.8439 HC        1 <0>        0.06078
     17 H8          0.9851   -1.6454   -1.7866 HC        1 <0>        0.06078
     18 H9          0.5897   -1.2834   -4.2314 H1        1 <0>        0.04401
     19 H10         2.0382   -0.2466   -4.2961 H1        1 <0>        0.04401
     20 H11         0.9719    1.3437   -2.5051 H1        1 <0>        0.02918
     21 H12         2.7361   -1.6949   -5.8779 H2        1 <0>        0.02806
     22 H13        -1.2581    1.0827   -2.4715 HO        1 <0>        0.39892
     23 H14         1.6378   -3.4994   -6.7474 HO        1 <0>        0.40868
@<TRIPOS>BOND
     1    1    5 1
     2    2    6 1
     3    3    4 1
     4    3    5 1
     5    4    9 1
     6    5    7 1
     7    6    8 1
     8    6    9 1
     9    1   10 1
    10    1   11 1
    11    1   12 1
    12    2   13 1
    13    2   14 1
    14    2   15 1
    15    3   16 1
    16    3   17 1
    17    4   18 1
    18    4   19 1
    19    5   20 1
    20    6   21 1
    21    7   22 1
    22    8   23 1
@<TRIPOS>SUBSTRUCTURE
     1 <0>         1 GROUP 0 A     ****
