@<TRIPOS>MOLECULE
AlkEthOH_c944
   27    26     1     0     0
SMALL
USER_CHARGES

@<TRIPOS>ATOM
      1 C1          0.9939    2.4257    0.2965 CT        1 <0>       -0.08894
      2 C2         -1.6539   -1.3770   -1.2310 CT        1 <0>       -0.08942
      3 C3         -2.4165   -1.0453    1.1235 CT        1 <0>       -0.08942
      4 C4          2.4790   -0.2763    0.3526 CT        1 <0>       -0.12601
      5 C5          0.9483    1.3787   -0.8071 CT        1 <0>       -0.10549
      6 C6         -0.0059   -0.5948    0.5824 CT        1 <0>       -0.05787
      7 C7         -1.4528   -0.5497    0.0384 CT        1 <0>       -0.05718
      8 C8          1.1235   -0.0817   -0.3444 CT        1 <0>        0.15598
      9 O1          1.1634   -0.8833   -1.5318 OH        1 <0>       -0.60047
     10 H1          1.9193    2.3596    0.8756 HC        1 <0>        0.03567
     11 H2          0.1476    2.3294    0.9821 HC        1 <0>        0.03567
     12 H3          0.9515    3.4284   -0.1417 HC        1 <0>        0.03567
     13 H4         -1.3961   -2.4271   -1.0685 HC        1 <0>        0.03477
     14 H5         -2.6903   -1.3240   -1.5808 HC        1 <0>        0.03477
     15 H6         -1.0077   -1.0143   -2.0381 HC        1 <0>        0.03477
     16 H7         -2.1987   -2.0840    1.3935 HC        1 <0>        0.03477
     17 H8         -2.3244   -0.4409    2.0323 HC        1 <0>        0.03477
     18 H9         -3.4570   -0.9926    0.7853 HC        1 <0>        0.03477
     19 H10         2.6027   -1.3145    0.6811 HC        1 <0>        0.04176
     20 H11         2.5441    0.3411    1.2562 HC        1 <0>        0.04176
     21 H12         3.3195   -0.0140   -0.2969 HC        1 <0>        0.04176
     22 H13         0.0064    1.4816   -1.3601 HC        1 <0>        0.04426
     23 H14         1.7257    1.6149   -1.5465 HC        1 <0>        0.04426
     24 H15         0.0227   -0.0197    1.5177 HC        1 <0>        0.04678
     25 H16         0.2161   -1.6354    0.8582 HC        1 <0>        0.04678
     26 H17        -1.7252    0.4886   -0.1825 HC        1 <0>        0.04179
     27 H18         1.9026   -0.5472   -2.0577 HO        1 <0>        0.39404
@<TRIPOS>BOND
     1    1    5 1
     2    2    7 1
     3    3    7 1
     4    4    8 1
     5    5    8 1
     6    6    7 1
     7    6    8 1
     8    8    9 1
     9    1   10 1
    10    1   11 1
    11    1   12 1
    12    2   13 1
    13    2   14 1
    14    2   15 1
    15    3   16 1
    16    3   17 1
    17    3   18 1
    18    4   19 1
    19    4   20 1
    20    4   21 1
    21    5   22 1
    22    5   23 1
    23    6   24 1
    24    6   25 1
    25    7   26 1
    26    9   27 1
@<TRIPOS>SUBSTRUCTURE
     1 <0>         1 GROUP 0 A     ****
