@<TRIPOS>MOLECULE
AlkEthOH_c262
   24    23     1     0     0
SMALL
USER_CHARGES

@<TRIPOS>ATOM
      1 C1         -0.5514   -0.6243   -0.8941 CT        1 <0>       -0.09018
      2 C2          0.0253   -1.5818   -3.1298 CT        1 <0>       -0.09018
      3 C3          2.3649    1.7598   -1.1649 CT        1 <0>       -0.09018
      4 C4          0.9501    3.3551   -2.4648 CT        1 <0>       -0.09018
      5 C5          0.4233   -0.5444   -2.0702 CT        1 <0>       -0.09668
      6 C6          0.9681    2.0004   -1.7450 CT        1 <0>       -0.09668
      7 C7          0.4910    0.8719   -2.6930 CT        1 <0>        0.14424
      8 O1          1.3287    0.8347   -3.8522 OH        1 <0>       -0.59645
      9 H1         -1.5653   -0.3455   -1.2005 HC        1 <0>        0.03674
     10 H2         -0.2469    0.0352   -0.0762 HC        1 <0>        0.03674
     11 H3         -0.5895   -1.6410   -0.4883 HC        1 <0>        0.03674
     12 H4         -0.9674   -1.3708   -3.5404 HC        1 <0>        0.03674
     13 H5          0.7329   -1.5738   -3.9661 HC        1 <0>        0.03674
     14 H6          0.0118   -2.5928   -2.7084 HC        1 <0>        0.03674
     15 H7          3.1169    1.6756   -1.9546 HC        1 <0>        0.03674
     16 H8          2.3877    0.8234   -0.5964 HC        1 <0>        0.03674
     17 H9          2.6676    2.5648   -0.4878 HC        1 <0>        0.03674
     18 H10         1.6319    3.3682   -3.3216 HC        1 <0>        0.03674
     19 H11         1.2538    4.1579   -1.7840 HC        1 <0>        0.03674
     20 H12        -0.0568    3.5898   -2.8260 HC        1 <0>        0.03674
     21 H13         1.4215   -0.8311   -1.7168 HC        1 <0>        0.04866
     22 H14         0.2636    2.0753   -0.9082 HC        1 <0>        0.04866
     23 H15        -0.5117    1.1373   -3.0520 H1        1 <0>        0.07250
     24 H16         2.2004    0.5440   -3.5470 HO        1 <0>        0.39559
@<TRIPOS>BOND
     1    1    5 1
     2    2    5 1
     3    3    6 1
     4    4    6 1
     5    5    7 1
     6    6    7 1
     7    7    8 1
     8    1    9 1
     9    1   10 1
    10    1   11 1
    11    2   12 1
    12    2   13 1
    13    2   14 1
    14    3   15 1
    15    3   16 1
    16    3   17 1
    17    4   18 1
    18    4   19 1
    19    4   20 1
    20    5   21 1
    21    6   22 1
    22    7   23 1
    23    8   24 1
@<TRIPOS>SUBSTRUCTURE
     1 <0>         1 GROUP 0 A     ****
