@<TRIPOS>MOLECULE
AlkEthOH_c608
   28    27     1     0     0
SMALL
USER_CHARGES

@<TRIPOS>ATOM
      1 C1         -0.9678    0.4811    2.9065 CT        1 <0>       -0.13106
      2 C2         -0.2463    2.1217   -1.2446 CT        1 <0>       -0.12901
      3 C3          1.2403   -1.4757   -0.6746 CT        1 <0>       -0.08473
      4 C4         -0.8246   -0.8604   -1.9053 CT        1 <0>       -0.08473
      5 C5         -0.7216   -0.3993    0.5538 CT        1 <0>       -0.07103
      6 C6          0.0124   -0.0228    1.8517 CT        1 <0>        0.14012
      7 C7          0.7524    0.9783   -1.0823 CT        1 <0>        0.14680
      8 C8          0.1200   -0.4139   -0.7622 CT        1 <0>       -0.03749
      9 O1          0.7003   -1.1450    2.3925 OH        1 <0>       -0.59901
     10 O2          1.5093    0.9263   -2.2952 OH        1 <0>       -0.59973
     11 H1         -1.7329   -0.2689    3.1292 HC        1 <0>        0.04232
     12 H2         -1.4644    1.3940    2.5604 HC        1 <0>        0.04232
     13 H3         -0.4478    0.7387    3.8359 HC        1 <0>        0.04232
     14 H4         -0.9689    1.8766   -2.0316 HC        1 <0>        0.04151
     15 H5          0.2403    3.0608   -1.5191 HC        1 <0>        0.04151
     16 H6         -0.8334    2.2772   -0.3342 HC        1 <0>        0.04151
     17 H7          1.9604   -1.2367    0.1161 HC        1 <0>        0.04061
     18 H8          0.8395   -2.4697   -0.4530 HC        1 <0>        0.04061
     19 H9          1.8032   -1.5370   -1.6129 HC        1 <0>        0.04061
     20 H10        -1.6558   -0.1605   -2.0404 HC        1 <0>        0.04061
     21 H11        -0.2956   -0.9406   -2.8611 HC        1 <0>        0.04061
     22 H12        -1.2608   -1.8431   -1.6904 HC        1 <0>        0.04061
     23 H13        -1.1648   -1.3969    0.6846 HC        1 <0>        0.05360
     24 H14        -1.5673    0.2884    0.4215 HC        1 <0>        0.05360
     25 H15         0.7514    0.7619    1.6683 H1        1 <0>        0.02986
     26 H16         1.4570    1.2571   -0.2900 H1        1 <0>        0.02687
     27 H17         1.1614   -0.8324    3.1870 HO        1 <0>        0.39549
     28 H18         1.9443    1.7871   -2.3800 HO        1 <0>        0.39530
@<TRIPOS>BOND
     1    1    6 1
     2    2    7 1
     3    3    8 1
     4    4    8 1
     5    5    6 1
     6    5    8 1
     7    6    9 1
     8    7    8 1
     9    7   10 1
    10    1   11 1
    11    1   12 1
    12    1   13 1
    13    2   14 1
    14    2   15 1
    15    2   16 1
    16    3   17 1
    17    3   18 1
    18    3   19 1
    19    4   20 1
    20    4   21 1
    21    4   22 1
    22    5   23 1
    23    5   24 1
    24    6   25 1
    25    7   26 1
    26    9   27 1
    27   10   28 1
@<TRIPOS>SUBSTRUCTURE
     1 <0>         1 GROUP 0 A     ****
