@<TRIPOS>MOLECULE
AlkEthOH_c1063
   29    28     1     0     0
SMALL
USER_CHARGES

@<TRIPOS>ATOM
      1 C1          1.2082   -2.1849   -2.7546 CT        1 <0>       -0.09187
      2 C2          0.2924   -0.6885    2.3821 CT        1 <0>       -0.12341
      3 C3          1.2231    1.6196    2.3292 CT        1 <0>       -0.12341
      4 C4         -1.3543    1.7362   -0.9515 CT        1 <0>       -0.14685
      5 C5          0.5892   -1.5908   -1.4985 CT        1 <0>       -0.07745
      6 C6         -0.1048   -0.2539   -1.7966 CT        1 <0>       -0.08244
      7 C7          0.1367    0.7025    1.7630 CT        1 <0>        0.37375
      8 C8         -0.7137    0.4056   -0.5399 CT        1 <0>        0.37379
      9 O1         -1.1076    1.2827    2.1408 OH        1 <0>       -0.62464
     10 O2         -1.7136   -0.4817   -0.0463 OH        1 <0>       -0.62251
     11 O3          0.3793    0.6543    0.3529 OS        1 <0>       -0.44918
     12 H1          0.4507   -2.3403   -3.5294 HC        1 <0>        0.03014
     13 H2          1.9713   -1.5109   -3.1561 HC        1 <0>        0.03014
     14 H3          1.6838   -3.1473   -2.5403 HC        1 <0>        0.03014
     15 H4         -0.4699   -1.3768    2.0007 HC        1 <0>        0.05206
     16 H5          1.2602   -1.1352    2.1370 HC        1 <0>        0.05206
     17 H6          0.2246   -0.6463    3.4744 HC        1 <0>        0.05206
     18 H7          1.1336    2.6250    1.9005 HC        1 <0>        0.05206
     19 H8          2.2260    1.2533    2.0842 HC        1 <0>        0.05206
     20 H9          1.1344    1.7246    3.4159 HC        1 <0>        0.05206
     21 H10        -1.8036    2.2493   -0.0962 HC        1 <0>        0.05470
     22 H11        -0.6124    2.4176   -1.3813 HC        1 <0>        0.05470
     23 H12        -2.1606    1.5782   -1.6762 HC        1 <0>        0.05470
     24 H13         1.3759   -1.4503   -0.7487 HC        1 <0>        0.05252
     25 H14        -0.1298   -2.3066   -1.0846 HC        1 <0>        0.05252
     26 H15        -0.8951   -0.4324   -2.5371 HC        1 <0>        0.04902
     27 H16         0.6306    0.4244   -2.2483 HC        1 <0>        0.04902
     28 H17        -1.1308    1.3552    3.1092 HO        1 <0>        0.41280
     29 H18        -2.3649   -0.6352   -0.7504 HO        1 <0>        0.41146
@<TRIPOS>BOND
     1    1    5 1
     2    2    7 1
     3    3    7 1
     4    4    8 1
     5    5    6 1
     6    6    8 1
     7    7    9 1
     8    7   11 1
     9    8   10 1
    10    8   11 1
    11    1   12 1
    12    1   13 1
    13    1   14 1
    14    2   15 1
    15    2   16 1
    16    2   17 1
    17    3   18 1
    18    3   19 1
    19    3   20 1
    20    4   21 1
    21    4   22 1
    22    4   23 1
    23    5   24 1
    24    5   25 1
    25    6   26 1
    26    6   27 1
    27    9   28 1
    28   10   29 1
@<TRIPOS>SUBSTRUCTURE
     1 <0>         1 GROUP 0 A     ****
