@<TRIPOS>MOLECULE
AlkEthOH_c1287
   14    13     1     0     0
SMALL
USER_CHARGES

@<TRIPOS>ATOM
      1 C1          0.2608   -0.6822   -1.9667 CT        1 <0>        0.12507
      2 C2         -0.4530    0.8641    1.2992 CT        1 <0>        0.09620
      3 C3          0.2970   -0.0144    0.3070 CT        1 <0>        0.33855
      4 O1          0.1574    0.7586    2.5779 OH        1 <0>       -0.61560
      5 O2          1.6451    0.4403    0.2666 OH        1 <0>       -0.62582
      6 O3         -0.3524    0.1127   -0.9607 OS        1 <0>       -0.41953
      7 H1         -0.2714   -0.5493   -2.9118 H1        1 <0>        0.03973
      8 H2          0.2366   -1.7330   -1.6672 H1        1 <0>        0.03973
      9 H3          1.2989   -0.3636   -2.0878 H1        1 <0>        0.03973
     10 H4         -0.4340    1.9127    0.9841 H1        1 <0>        0.04931
     11 H5         -1.4986    0.5495    1.3876 H1        1 <0>        0.04931
     12 H6          0.2650   -1.0589    0.6418 H2        1 <0>        0.04155
     13 H7         -0.3481    1.3305    3.1781 HO        1 <0>        0.41279
     14 H8          2.0062    0.3514    1.1647 HO        1 <0>        0.42898
@<TRIPOS>BOND
     1    1    6 1
     2    2    3 1
     3    2    4 1
     4    3    5 1
     5    3    6 1
     6    1    7 1
     7    1    8 1
     8    1    9 1
     9    2   10 1
    10    2   11 1
    11    3   12 1
    12    4   13 1
    13    5   14 1
@<TRIPOS>SUBSTRUCTURE
     1 <0>         1 GROUP 0 A     ****
