@<TRIPOS>MOLECULE
AlkEthOH_c1198
   26    25     1     0     0
SMALL
USER_CHARGES

@<TRIPOS>ATOM
      1 C1          0.1169   -3.4789   -1.1847 CT        1 <0>       -0.09248
      2 C2          0.6531    0.5941    2.7736 CT        1 <0>       -0.12680
      3 C3         -1.4768    0.9914   -0.9642 CT        1 <0>       -0.11041
      4 C4          0.7894    0.7225   -1.9357 CT        1 <0>       -0.11041
      5 C5          0.6179   -2.0687   -0.9565 CT        1 <0>        0.13917
      6 C6         -0.2195    0.1654    1.6034 CT        1 <0>        0.34375
      7 C7         -0.1580    0.2164   -0.8377 CT        1 <0>        0.35403
      8 O1         -0.4706   -1.2261    1.7539 OH        1 <0>       -0.61100
      9 O2         -0.4795   -1.1692   -1.0349 OS        1 <0>       -0.43124
     10 O3          0.4961    0.4894    0.4118 OS        1 <0>       -0.44715
     11 H1         -0.6188   -3.7592   -0.4257 HC        1 <0>        0.04048
     12 H2         -0.3434   -3.5697   -2.1740 HC        1 <0>        0.04048
     13 H3          0.9466   -4.1929   -1.1530 HC        1 <0>        0.04048
     14 H4          1.6129    0.0677    2.7613 HC        1 <0>        0.05132
     15 H5          0.1500    0.4065    3.7275 HC        1 <0>        0.05132
     16 H6          0.8677    1.6676    2.7219 HC        1 <0>        0.05132
     17 H7         -2.2017    0.6774   -0.2059 HC        1 <0>        0.05228
     18 H8         -1.9336    0.8396   -1.9484 HC        1 <0>        0.05228
     19 H9         -1.3088    2.0707   -0.8741 HC        1 <0>        0.05228
     20 H10         1.7539    0.2037   -1.8968 HC        1 <0>        0.05228
     21 H11         0.3671    0.5654   -2.9339 HC        1 <0>        0.05228
     22 H12         1.0111    1.7875   -1.8031 HC        1 <0>        0.05228
     23 H13         1.3533   -1.7947   -1.7188 H1        1 <0>        0.03511
     24 H14         1.0768   -1.9795    0.0326 H1        1 <0>        0.03511
     25 H15        -1.1628    0.7177    1.6609 H2        1 <0>        0.03027
     26 H16        -0.9267   -1.3443    2.6043 HO        1 <0>        0.40297
@<TRIPOS>BOND
     1    1    5 1
     2    2    6 1
     3    3    7 1
     4    4    7 1
     5    5    9 1
     6    6    8 1
     7    6   10 1
     8    7    9 1
     9    7   10 1
    10    1   11 1
    11    1   12 1
    12    1   13 1
    13    2   14 1
    14    2   15 1
    15    2   16 1
    16    3   17 1
    17    3   18 1
    18    3   19 1
    19    4   20 1
    20    4   21 1
    21    4   22 1
    22    5   23 1
    23    5   24 1
    24    6   25 1
    25    8   26 1
@<TRIPOS>SUBSTRUCTURE
     1 <0>         1 GROUP 0 A     ****
