@<TRIPOS>MOLECULE
AlkEthOH_c491
   26    25     1     0     0
SMALL
USER_CHARGES

@<TRIPOS>ATOM
      1 C1         -1.1614   -3.5617    1.1926 CT        1 <0>       -0.10850
      2 C2          1.2882   -2.9694    1.1799 CT        1 <0>       -0.10850
      3 C3          1.6638   -0.0956   -1.3091 CT        1 <0>       -0.11946
      4 C4         -0.6713    0.7462   -1.6439 CT        1 <0>       -0.11946
      5 C5         -0.1348   -2.4436    1.2908 CT        1 <0>        0.14056
      6 C6         -0.0086   -0.1674    0.6282 CT        1 <0>        0.33816
      7 C7          0.4681    0.5847   -0.6335 CT        1 <0>        0.16641
      8 O1         -1.1084    0.5323    1.2034 OH        1 <0>       -0.59557
      9 O2          0.8699    1.9024   -0.2450 OH        1 <0>       -0.59505
     10 O3         -0.3680   -1.5020    0.2524 OS        1 <0>       -0.44515
     11 H1         -1.0652   -4.1075    0.2491 HC        1 <0>        0.04543
     12 H2         -1.0357   -4.2681    2.0201 HC        1 <0>        0.04543
     13 H3         -2.1813   -3.1684    1.2676 HC        1 <0>        0.04543
     14 H4          1.4429   -3.5012    0.2361 HC        1 <0>        0.04543
     15 H5          1.5074   -3.6533    2.0069 HC        1 <0>        0.04543
     16 H6          2.0162   -2.1533    1.2455 HC        1 <0>        0.04543
     17 H7          2.4898   -0.2192   -0.5990 HC        1 <0>        0.04920
     18 H8          2.0292    0.4810   -2.1648 HC        1 <0>        0.04920
     19 H9          1.4073   -1.1036   -1.6529 HC        1 <0>        0.04920
     20 H10        -1.5369    1.2316   -1.1786 HC        1 <0>        0.04920
     21 H11        -0.3662    1.3934   -2.4744 HC        1 <0>        0.04920
     22 H12        -0.9933   -0.2145   -2.0580 HC        1 <0>        0.04920
     23 H13        -0.2569   -1.9180    2.2435 H1        1 <0>        0.02698
     24 H14         0.8156   -0.2080    1.3528 H2        1 <0>        0.04671
     25 H15        -1.3849    0.0365    1.9925 HO        1 <0>        0.40196
     26 H16         1.1279    2.3572   -1.0597 HO        1 <0>        0.40313
@<TRIPOS>BOND
     1    1    5 1
     2    2    5 1
     3    3    7 1
     4    4    7 1
     5    5   10 1
     6    6    7 1
     7    6    8 1
     8    6   10 1
     9    7    9 1
    10    1   11 1
    11    1   12 1
    12    1   13 1
    13    2   14 1
    14    2   15 1
    15    2   16 1
    16    3   17 1
    17    3   18 1
    18    3   19 1
    19    4   20 1
    20    4   21 1
    21    4   22 1
    22    5   23 1
    23    6   24 1
    24    8   25 1
    25    9   26 1
@<TRIPOS>SUBSTRUCTURE
     1 <0>         1 GROUP 0 A     ****
