@<TRIPOS>MOLECULE
AlkEthOH_c703
   21    20     1     0     0
SMALL
USER_CHARGES

@<TRIPOS>ATOM
      1 C1         -0.2119    2.1577   -0.4541 CT        1 <0>       -0.13341
      2 C2         -0.4771    0.2933    1.2674 CT        1 <0>       -0.10384
      3 C3          0.9286   -2.4662   -0.7649 CT        1 <0>        0.33406
      4 C4          0.3480    1.4960    0.7979 CT        1 <0>        0.14687
      5 C5         -0.5046   -0.8875    0.2949 CT        1 <0>        0.34196
      6 O1          0.5655   -2.1364   -2.0979 OH        1 <0>       -0.63767
      7 O2          0.3506    2.4540    1.8568 OH        1 <0>       -0.60600
      8 O3         -1.3525   -1.8822    0.8660 OH        1 <0>       -0.63308
      9 O4          0.8315   -1.3601    0.1260 OS        1 <0>       -0.41075
     10 H1         -1.2522    2.4619   -0.2940 HC        1 <0>        0.04390
     11 H2          0.3613    3.0454   -0.7354 HC        1 <0>        0.04390
     12 H3         -0.2164    1.4584   -1.2974 HC        1 <0>        0.04390
     13 H4         -1.5040    0.6080    1.4974 HC        1 <0>        0.06800
     14 H5         -0.0720   -0.0445    2.2319 HC        1 <0>        0.06800
     15 H6          0.3418   -3.3216   -0.4129 H2        1 <0>        0.05004
     16 H7          1.9786   -2.7723   -0.7836 H2        1 <0>        0.05004
     17 H8          1.3875    1.1965    0.6259 H1        1 <0>        0.05277
     18 H9         -0.9335   -0.5691   -0.6619 H2        1 <0>        0.05443
     19 H10         0.6610   -2.9439   -2.6309 HO        1 <0>        0.41335
     20 H11         0.9133    3.1857    1.5621 HO        1 <0>        0.39990
     21 H12        -2.2333   -1.4847    0.9722 HO        1 <0>        0.41363
@<TRIPOS>BOND
     1    1    4 1
     2    2    4 1
     3    2    5 1
     4    3    6 1
     5    3    9 1
     6    4    7 1
     7    5    8 1
     8    5    9 1
     9    1   10 1
    10    1   11 1
    11    1   12 1
    12    2   13 1
    13    2   14 1
    14    3   15 1
    15    3   16 1
    16    4   17 1
    17    5   18 1
    18    6   19 1
    19    7   20 1
    20    8   21 1
@<TRIPOS>SUBSTRUCTURE
     1 <0>         1 GROUP 0 A     ****
