@<TRIPOS>MOLECULE
AlkEthOH_c175
   15    14     1     0     0
SMALL
USER_CHARGES

@<TRIPOS>ATOM
      1 C1         -0.4645   -0.0646    0.9894 CT        1 <0>       -0.10914
      2 C2          1.6273    0.6910    2.1567 CT        1 <0>       -0.10914
      3 C3          1.2036   -1.7604    1.8118 CT        1 <0>       -0.10914
      4 C4          0.5609   -0.3988    2.0719 CT        1 <0>        0.14562
      5 O1         -0.1082   -0.4451    3.3327 OH        1 <0>       -0.59880
      6 H1         -1.2317   -0.8445    0.9253 HC        1 <0>        0.04268
      7 H2         -0.9578    0.8935    1.1830 HC        1 <0>        0.04268
      8 H3          0.0103   -0.0162    0.0027 HC        1 <0>        0.04268
      9 H4          2.3651    0.4554    2.9322 HC        1 <0>        0.04268
     10 H5          1.1816    1.6524    2.4367 HC        1 <0>        0.04268
     11 H6          2.1531    0.8168    1.2047 HC        1 <0>        0.04268
     12 H7          1.9391   -2.0003    2.5882 HC        1 <0>        0.04268
     13 H8          0.4566   -2.5604    1.7845 HC        1 <0>        0.04268
     14 H9          1.7476   -1.7592    0.8603 HC        1 <0>        0.04268
     15 H10        -0.4938    0.4331    3.4699 HO        1 <0>        0.39648
@<TRIPOS>BOND
     1    1    4 1
     2    2    4 1
     3    3    4 1
     4    4    5 1
     5    1    6 1
     6    1    7 1
     7    1    8 1
     8    2    9 1
     9    2   10 1
    10    2   11 1
    11    3   12 1
    12    3   13 1
    13    3   14 1
    14    5   15 1
@<TRIPOS>SUBSTRUCTURE
     1 <0>         1 GROUP 0 A     ****
