@<TRIPOS>MOLECULE
AlkEthOH_c669
   25    24     1     0     0
SMALL
USER_CHARGES

@<TRIPOS>ATOM
      1 C1          0.3481   -0.9420   -1.7838 CT        1 <0>       -0.09259
      2 C2         -1.2798    2.4407    0.6728 CT        1 <0>       -0.13049
      3 C3          2.9969   -2.2082    2.0796 CT        1 <0>        0.11679
      4 C4          0.1699    0.3985    0.3822 CT        1 <0>       -0.06770
      5 C5          1.7228   -1.5958    0.2023 CT        1 <0>        0.12805
      6 C6          0.3859   -0.9942   -0.2556 CT        1 <0>       -0.06389
      7 C7         -1.1606    1.0696    0.0183 CT        1 <0>        0.13928
      8 O1         -2.2372    0.2518    0.4659 OH        1 <0>       -0.59770
      9 O2          1.7639   -1.6706    1.6213 OS        1 <0>       -0.41905
     10 H1          1.1343   -0.2892   -2.1775 HC        1 <0>        0.03498
     11 H2          0.4926   -1.9405   -2.2107 HC        1 <0>        0.03498
     12 H3         -0.6162   -0.5749   -2.1475 HC        1 <0>        0.03498
     13 H4         -1.1970    2.3643    1.7625 HC        1 <0>        0.04204
     14 H5         -0.5075    3.1244    0.3075 HC        1 <0>        0.04204
     15 H6         -2.2608    2.8807    0.4631 HC        1 <0>        0.04204
     16 H7          2.9932   -2.2509    3.1715 H1        1 <0>        0.03125
     17 H8          3.8210   -1.5803    1.7317 H1        1 <0>        0.03125
     18 H9          3.1158   -3.2174    1.6782 H1        1 <0>        0.03125
     19 H10         0.2095    0.2848    1.4735 HC        1 <0>        0.05675
     20 H11         0.9982    1.0615    0.1012 HC        1 <0>        0.05675
     21 H12         1.8433   -2.6108   -0.1909 H1        1 <0>        0.02304
     22 H13         2.5666   -0.9869   -0.1399 H1        1 <0>        0.02304
     23 H14        -0.4165   -1.6575    0.0921 HC        1 <0>        0.08060
     24 H15        -1.2477    1.1851   -1.0667 H1        1 <0>        0.02693
     25 H16        -3.0552    0.6987    0.1971 HO        1 <0>        0.39538
@<TRIPOS>BOND
     1    1    6 1
     2    2    7 1
     3    3    9 1
     4    4    6 1
     5    4    7 1
     6    5    6 1
     7    5    9 1
     8    7    8 1
     9    1   10 1
    10    1   11 1
    11    1   12 1
    12    2   13 1
    13    2   14 1
    14    2   15 1
    15    3   16 1
    16    3   17 1
    17    3   18 1
    18    4   19 1
    19    4   20 1
    20    5   21 1
    21    5   22 1
    22    6   23 1
    23    7   24 1
    24    8   25 1
@<TRIPOS>SUBSTRUCTURE
     1 <0>         1 GROUP 0 A     ****
