@<TRIPOS>MOLECULE
AlkEthOH_c460
   29    28     1     0     0
SMALL
USER_CHARGES

@<TRIPOS>ATOM
      1 C1          0.7120   -0.6427   -0.4758 CT        1 <0>       -0.09063
      2 C2          1.3259    1.2844   -1.9470 CT        1 <0>       -0.09063
      3 C3          5.5199   -3.9898   -0.8588 CT        1 <0>       -0.09063
      4 C4          5.2157   -5.1795   -3.0400 CT        1 <0>       -0.09063
      5 C5          3.1782   -2.1280   -1.5684 CT        1 <0>       -0.07894
      6 C6          2.5615   -0.8866   -2.2208 CT        1 <0>       -0.07379
      7 C7          3.9400   -3.0232   -2.5548 CT        1 <0>       -0.07379
      8 C8          1.8577    0.0478   -1.2174 CT        1 <0>       -0.06649
      9 C9          4.5270   -4.3246   -1.9760 CT        1 <0>       -0.06649
     10 H1         -0.0529   -1.0011   -1.1728 HC        1 <0>        0.03290
     11 H2          0.2319    0.0477    0.2263 HC        1 <0>        0.03290
     12 H3          1.0702   -1.4962    0.1073 HC        1 <0>        0.03290
     13 H4          0.5835    1.0103   -2.7043 HC        1 <0>        0.03290
     14 H5          0.8532    1.9785   -1.2439 HC        1 <0>        0.03290
     15 H6          2.1389    1.8213   -2.4473 HC        1 <0>        0.03290
     16 H7          6.3588   -3.3953   -1.2366 HC        1 <0>        0.03290
     17 H8          5.9263   -4.9037   -0.4125 HC        1 <0>        0.03290
     18 H9          5.0308   -3.4194   -0.0621 HC        1 <0>        0.03290
     19 H10         6.0325   -4.6335   -3.5218 HC        1 <0>        0.03290
     20 H11         5.6265   -6.0977   -2.6069 HC        1 <0>        0.03290
     21 H12         4.5090   -5.4643   -3.8271 HC        1 <0>        0.03290
     22 H13         2.3855   -2.7400   -1.1233 HC        1 <0>        0.04042
     23 H14         3.8355   -1.8296   -0.7441 HC        1 <0>        0.04042
     24 H15         1.8522   -1.1973   -2.9985 HC        1 <0>        0.03879
     25 H16         3.3509   -0.3153   -2.7227 HC        1 <0>        0.03879
     26 H17         4.7526   -2.4344   -3.0001 HC        1 <0>        0.03879
     27 H18         3.2580   -3.2731   -3.3783 HC        1 <0>        0.03879
     28 H19         2.5929    0.3861   -0.4762 HC        1 <0>        0.04561
     29 H20         3.7208   -4.9162   -1.5269 HC        1 <0>        0.04561
@<TRIPOS>BOND
     1    1    8 1
     2    2    8 1
     3    3    9 1
     4    4    9 1
     5    5    6 1
     6    5    7 1
     7    6    8 1
     8    7    9 1
     9    1   10 1
    10    1   11 1
    11    1   12 1
    12    2   13 1
    13    2   14 1
    14    2   15 1
    15    3   16 1
    16    3   17 1
    17    3   18 1
    18    4   19 1
    19    4   20 1
    20    4   21 1
    21    5   22 1
    22    5   23 1
    23    6   24 1
    24    6   25 1
    25    7   26 1
    26    7   27 1
    27    8   28 1
    28    9   29 1
@<TRIPOS>SUBSTRUCTURE
     1 <0>         1 GROUP 0 A     ****
