@<TRIPOS>MOLECULE
AlkEthOH_c1025
   29    28     1     0     0
SMALL
USER_CHARGES

@<TRIPOS>ATOM
      1 C1          1.7558   -1.5839   -2.5656 CT        1 <0>       -0.09207
      2 C2         -1.8070   -1.0310    0.4483 CT        1 <0>       -0.09107
      3 C3         -0.9208   -0.0770    2.5700 CT        1 <0>       -0.09107
      4 C4         -0.7004    1.8605    0.1682 CT        1 <0>       -0.08828
      5 C5          1.4956    1.0835    1.0519 CT        1 <0>       -0.08828
      6 C6          1.4813   -1.1507   -1.1321 CT        1 <0>       -0.08147
      7 C7          0.6407    0.1311   -1.0928 CT        1 <0>       -0.07049
      8 C8         -0.5431   -0.4967    1.1415 CT        1 <0>       -0.05581
      9 C9          0.2102    0.6201    0.3274 CT        1 <0>       -0.04388
     10 H1          2.2747   -0.7962   -3.1209 HC        1 <0>        0.03210
     11 H2          2.3733   -2.4873   -2.5909 HC        1 <0>        0.03210
     12 H3          0.8158   -1.8005   -3.0826 HC        1 <0>        0.03210
     13 H4         -2.5555   -0.2465    0.3065 HC        1 <0>        0.03342
     14 H5         -1.5606   -1.4159   -0.5480 HC        1 <0>        0.03342
     15 H6         -2.2647   -1.8515    1.0089 HC        1 <0>        0.03342
     16 H7         -1.5990    0.7815    2.5760 HC        1 <0>        0.03342
     17 H8         -1.4287   -0.8986    3.0880 HC        1 <0>        0.03342
     18 H9         -0.0404    0.1739    3.1676 HC        1 <0>        0.03342
     19 H10        -1.6385    1.6130   -0.3401 HC        1 <0>        0.03398
     20 H11        -0.2092    2.6496   -0.4107 HC        1 <0>        0.03398
     21 H12        -0.9707    2.2803    1.1441 HC        1 <0>        0.03398
     22 H13         2.1966    0.2568    1.2034 HC        1 <0>        0.03398
     23 H14         1.2780    1.5267    2.0286 HC        1 <0>        0.03398
     24 H15         2.0198    1.8479    0.4658 HC        1 <0>        0.03398
     25 H16         0.9633   -1.9649   -0.6153 HC        1 <0>        0.03939
     26 H17         2.4407   -0.9989   -0.6281 HC        1 <0>        0.03939
     27 H18         1.1882    0.9308   -1.6078 HC        1 <0>        0.03868
     28 H19        -0.2626   -0.0347   -1.6968 HC        1 <0>        0.03868
     29 H20         0.1333   -1.3569    1.2328 HC        1 <0>        0.04558
@<TRIPOS>BOND
     1    1    6 1
     2    2    8 1
     3    3    8 1
     4    4    9 1
     5    5    9 1
     6    6    7 1
     7    7    9 1
     8    8    9 1
     9    1   10 1
    10    1   11 1
    11    1   12 1
    12    2   13 1
    13    2   14 1
    14    2   15 1
    15    3   16 1
    16    3   17 1
    17    3   18 1
    18    4   19 1
    19    4   20 1
    20    4   21 1
    21    5   22 1
    22    5   23 1
    23    5   24 1
    24    6   25 1
    25    6   26 1
    26    7   27 1
    27    7   28 1
    28    8   29 1
@<TRIPOS>SUBSTRUCTURE
     1 <0>         1 GROUP 0 A     ****
