@<TRIPOS>MOLECULE
AlkEthOH_c861
   29    28     1     0     0
SMALL
USER_CHARGES

@<TRIPOS>ATOM
      1 C1          1.0463   -1.0493    2.2656 CT        1 <0>       -0.12196
      2 C2          1.0857    0.7447   -1.7592 CT        1 <0>       -0.12612
      3 C3         -2.9302    0.2352   -0.6604 CT        1 <0>       -0.10823
      4 C4         -3.0955    2.5310   -1.6661 CT        1 <0>       -0.10823
      5 C5         -2.0276    0.6686   -2.9696 CT        1 <0>       -0.10823
      6 C6          0.5896   -1.0420    0.8162 CT        1 <0>        0.33124
      7 C7         -0.1323    0.4749   -0.8853 CT        1 <0>        0.33659
      8 C8         -2.2593    1.2562   -1.5782 CT        1 <0>        0.15368
      9 O1         -0.5581   -1.8796    0.7250 OH        1 <0>       -0.62923
     10 O2          0.2973    0.3107    0.4679 OS        1 <0>       -0.45868
     11 O3         -0.9999    1.6077   -1.0198 OS        1 <0>       -0.40865
     12 H1          0.2640   -0.6471    2.9197 HC        1 <0>        0.05571
     13 H2          1.9363   -0.4260    2.3984 HC        1 <0>        0.05571
     14 H3          1.2641   -2.0674    2.6035 HC        1 <0>        0.05571
     15 H4          1.6353    1.6281   -1.4217 HC        1 <0>        0.04870
     16 H5          0.7811    0.9262   -2.7963 HC        1 <0>        0.04870
     17 H6          1.7616   -0.1165   -1.7628 HC        1 <0>        0.04870
     18 H7         -2.3330   -0.6813   -0.5947 HC        1 <0>        0.04436
     19 H8         -3.0703    0.6322    0.3503 HC        1 <0>        0.04436
     20 H9         -3.9090   -0.0612   -1.0546 HC        1 <0>        0.04436
     21 H10        -2.6179    3.2663   -2.3236 HC        1 <0>        0.04436
     22 H11        -3.1848    3.0078   -0.6832 HC        1 <0>        0.04436
     23 H12        -4.1022    2.3285   -2.0459 HC        1 <0>        0.04436
     24 H13        -1.5464    1.4007   -3.6281 HC        1 <0>        0.04436
     25 H14        -1.3984   -0.2265   -2.9297 HC        1 <0>        0.04436
     26 H15        -2.9794    0.4042   -3.4444 HC        1 <0>        0.04436
     27 H16         1.3892   -1.4483    0.1862 H2        1 <0>        0.06693
     28 H17        -0.6567   -0.4158   -1.2532 H2        1 <0>        0.05800
     29 H18        -0.2904   -2.7699    1.0087 HO        1 <0>        0.41042
@<TRIPOS>BOND
     1    1    6 1
     2    2    7 1
     3    3    8 1
     4    4    8 1
     5    5    8 1
     6    6    9 1
     7    6   10 1
     8    7   10 1
     9    7   11 1
    10    8   11 1
    11    1   12 1
    12    1   13 1
    13    1   14 1
    14    2   15 1
    15    2   16 1
    16    2   17 1
    17    3   18 1
    18    3   19 1
    19    3   20 1
    20    4   21 1
    21    4   22 1
    22    4   23 1
    23    5   24 1
    24    5   25 1
    25    5   26 1
    26    6   27 1
    27    7   28 1
    28    9   29 1
@<TRIPOS>SUBSTRUCTURE
     1 <0>         1 GROUP 0 A     ****
