@<TRIPOS>MOLECULE
AlkEthOH_c952
   19    18     1     0     0
SMALL
USER_CHARGES

@<TRIPOS>ATOM
      1 C1          2.3392    0.3643   -0.3662 CT        1 <0>       -0.08924
      2 C2         -1.5106    0.8961   -0.2128 CT        1 <0>       -0.14046
      3 C3         -0.8073   -2.0717    0.5259 CT        1 <0>        0.13174
      4 C4          0.9554    0.9538   -0.6268 CT        1 <0>       -0.09850
      5 C5         -0.1759    0.2209    0.1232 CT        1 <0>        0.34629
      6 O1          0.0921    0.3494    1.5208 OH        1 <0>       -0.62367
      7 O2         -0.1451   -1.1428   -0.3195 OS        1 <0>       -0.42180
      8 H1          2.3555   -0.6920   -0.6538 HC        1 <0>        0.04134
      9 H2          3.1088    0.8812   -0.9475 HC        1 <0>        0.04134
     10 H3          2.6063    0.4262    0.6933 HC        1 <0>        0.04134
     11 H4         -2.3453    0.4066    0.3001 HC        1 <0>        0.04899
     12 H5         -1.5184    1.9404    0.1184 HC        1 <0>        0.04899
     13 H6         -1.7160    0.8574   -1.2876 HC        1 <0>        0.04899
     14 H7         -0.7255   -3.0751    0.1007 H1        1 <0>        0.03760
     15 H8         -1.8589   -1.7908    0.6243 H1        1 <0>        0.03760
     16 H9         -0.3343   -2.0561    1.5106 H1        1 <0>        0.03760
     17 H10         0.9775    2.0091   -0.3277 HC        1 <0>        0.04912
     18 H11         0.7693    0.9154   -1.7073 HC        1 <0>        0.04912
     19 H12         0.1363    1.2957    1.7378 HO        1 <0>        0.41361
@<TRIPOS>BOND
     1    1    4 1
     2    2    5 1
     3    3    7 1
     4    4    5 1
     5    5    6 1
     6    5    7 1
     7    1    8 1
     8    1    9 1
     9    1   10 1
    10    2   11 1
    11    2   12 1
    12    2   13 1
    13    3   14 1
    14    3   15 1
    15    3   16 1
    16    4   17 1
    17    4   18 1
    18    6   19 1
@<TRIPOS>SUBSTRUCTURE
     1 <0>         1 GROUP 0 A     ****
