@<TRIPOS>MOLECULE
AlkEthOH_c1162
    9     8     1     0     0
SMALL
USER_CHARGES

@<TRIPOS>ATOM
      1 C1          1.0616   -0.2681   -0.0006 CT        1 <0>       -0.13585
      2 C2          1.9101    0.9126   -0.4220 CT        1 <0>        0.12614
      3 O1          1.5170    1.3236   -1.7228 OH        1 <0>       -0.59998
      4 H1          0.0022    0.0017    0.0240 HC        1 <0>        0.04235
      5 H2          1.1969   -1.1069   -0.6913 HC        1 <0>        0.04235
      6 H3          1.3591   -0.6222    0.9921 HC        1 <0>        0.04235
      7 H4          2.9684    0.6361   -0.4446 H1        1 <0>        0.04339
      8 H5          1.7730    1.7499    0.2687 H1        1 <0>        0.04339
      9 H6          1.6590    0.5652   -2.3129 HO        1 <0>        0.39586
@<TRIPOS>BOND
     1    1    2 1
     2    2    3 1
     3    1    4 1
     4    1    5 1
     5    1    6 1
     6    2    7 1
     7    2    8 1
     8    3    9 1
@<TRIPOS>SUBSTRUCTURE
     1 <0>         1 GROUP 0 A     ****
