@<TRIPOS>MOLECULE
AlkEthOH_c771
   19    18     1     0     0
SMALL
USER_CHARGES

@<TRIPOS>ATOM
      1 C1         -1.0347   -0.3388    0.1204 CT        1 <0>       -0.08522
      2 C2         -2.2884    3.3099    1.7613 CT        1 <0>        0.11480
      3 C3         -0.5837   -1.2096    2.4509 CT        1 <0>        0.13240
      4 C4         -1.4344    1.1474    2.1035 CT        1 <0>        0.12683
      5 C5         -1.4636   -0.2946    1.5888 CT        1 <0>       -0.06597
      6 O1         -0.7029   -2.5552    2.0062 OH        1 <0>       -0.59794
      7 O2         -2.3190    1.9541    1.3369 OS        1 <0>       -0.41586
      8 H1         -0.0095    0.0290    0.0050 HC        1 <0>        0.04273
      9 H2         -1.0735   -1.3605   -0.2726 HC        1 <0>        0.04273
     10 H3         -1.6813    0.2887   -0.5012 HC        1 <0>        0.04273
     11 H4         -2.9783    3.8989    1.1520 H1        1 <0>        0.03259
     12 H5         -1.2727    3.7010    1.6619 H1        1 <0>        0.03259
     13 H6         -2.5957    3.3616    2.8085 H1        1 <0>        0.03259
     14 H7         -0.8931   -1.1757    3.5004 H1        1 <0>        0.02038
     15 H8          0.4694   -0.9148    2.3879 H1        1 <0>        0.02038
     16 H9         -1.7391    1.1974    3.1544 H1        1 <0>        0.02503
     17 H10        -0.4279    1.5690    2.0117 H1        1 <0>        0.02503
     18 H11        -2.4932   -0.6718    1.6487 HC        1 <0>        0.07543
     19 H12        -0.1311   -3.0905    2.5796 HO        1 <0>        0.39875
@<TRIPOS>BOND
     1    1    5 1
     2    2    7 1
     3    3    5 1
     4    3    6 1
     5    4    5 1
     6    4    7 1
     7    1    8 1
     8    1    9 1
     9    1   10 1
    10    2   11 1
    11    2   12 1
    12    2   13 1
    13    3   14 1
    14    3   15 1
    15    4   16 1
    16    4   17 1
    17    5   18 1
    18    6   19 1
@<TRIPOS>SUBSTRUCTURE
     1 <0>         1 GROUP 0 A     ****
