@<TRIPOS>MOLECULE
AlkEthOH_c320
   30    29     1     0     0
SMALL
USER_CHARGES

@<TRIPOS>ATOM
      1 C1         -0.4467    1.2720    2.5148 CT        1 <0>       -0.08976
      2 C2         -0.5700    2.7182    0.4733 CT        1 <0>       -0.08976
      3 C3          1.7652   -0.3539    1.0511 CT        1 <0>       -0.08983
      4 C4          0.4852   -0.8747   -2.5010 CT        1 <0>       -0.12410
      5 C5         -1.4922   -2.1346   -1.6318 CT        1 <0>       -0.12410
      6 C6         -0.4792   -0.3394   -0.1872 CT        1 <0>       -0.05834
      7 C7          0.2800    1.6950    1.2352 CT        1 <0>       -0.06537
      8 C8          0.7178    0.5026    0.3277 CT        1 <0>       -0.04979
      9 C9         -0.1839   -1.4321   -1.2444 CT        1 <0>        0.15175
     10 O1          0.6807   -2.4284   -0.6982 OH        1 <0>       -0.59666
     11 H1         -1.3758    0.7363    2.2966 HC        1 <0>        0.03276
     12 H2         -0.7095    2.1525    3.1121 HC        1 <0>        0.03276
     13 H3          0.1813    0.6315    3.1406 HC        1 <0>        0.03276
     14 H4         -1.5129    2.2886    0.1212 HC        1 <0>        0.03276
     15 H5         -0.8193    3.5651    1.1223 HC        1 <0>        0.03276
     16 H6         -0.0265    3.1131   -0.3912 HC        1 <0>        0.03276
     17 H7          1.3475   -0.8421    1.9372 HC        1 <0>        0.03838
     18 H8          2.6194    0.2539    1.3686 HC        1 <0>        0.03838
     19 H9          2.1640   -1.1300    0.3914 HC        1 <0>        0.03838
     20 H10         1.4237   -0.3673   -2.2483 HC        1 <0>        0.04164
     21 H11        -0.1390   -0.1176   -2.9868 HC        1 <0>        0.04164
     22 H12         0.7071   -1.6662   -3.2240 HC        1 <0>        0.04164
     23 H13        -2.0030   -2.5488   -0.7562 HC        1 <0>        0.04164
     24 H14        -2.1744   -1.4405   -2.1360 HC        1 <0>        0.04164
     25 H15        -1.3033   -2.9499   -2.3398 HC        1 <0>        0.04164
     26 H16        -0.9558   -0.8230    0.6753 HC        1 <0>        0.04835
     27 H17        -1.2224    0.3421   -0.6171 HC        1 <0>        0.04835
     28 H18         1.1943    2.2220    1.5418 HC        1 <0>        0.04259
     29 H19         1.2191    0.9504   -0.5401 HC        1 <0>        0.03993
     30 H20         0.7830   -3.1070   -1.3824 HO        1 <0>        0.39520
@<TRIPOS>BOND
     1    1    7 1
     2    2    7 1
     3    3    8 1
     4    4    9 1
     5    5    9 1
     6    6    8 1
     7    6    9 1
     8    7    8 1
     9    9   10 1
    10    1   11 1
    11    1   12 1
    12    1   13 1
    13    2   14 1
    14    2   15 1
    15    2   16 1
    16    3   17 1
    17    3   18 1
    18    3   19 1
    19    4   20 1
    20    4   21 1
    21    4   22 1
    22    5   23 1
    23    5   24 1
    24    5   25 1
    25    6   26 1
    26    6   27 1
    27    7   28 1
    28    8   29 1
    29   10   30 1
@<TRIPOS>SUBSTRUCTURE
     1 <0>         1 GROUP 0 A     ****
