@<TRIPOS>MOLECULE
AlkEthOH_c501
   33    32     1     0     0
SMALL
USER_CHARGES

@<TRIPOS>ATOM
      1 C1          0.4673   -1.5822    5.6466 CT        1 <0>       -0.10636
      2 C2         -1.7966   -2.6583    5.3857 CT        1 <0>       -0.10636
      3 C3         -2.7700    0.5302    2.0220 CT        1 <0>       -0.08723
      4 C4         -1.0734    0.0831    0.2464 CT        1 <0>       -0.08723
      5 C5         -0.4568    1.4451    2.2296 CT        1 <0>       -0.08723
      6 C6         -1.5818   -2.3500    2.0992 CT        1 <0>       -0.12051
      7 C7          0.6954   -1.3708    2.3753 CT        1 <0>       -0.12051
      8 C8         -0.6118   -2.0264    4.6711 CT        1 <0>        0.13816
      9 C9         -1.2802    0.2165    1.7742 CT        1 <0>       -0.03603
     10 C10        -0.8096   -1.0895    2.5249 CT        1 <0>        0.16923
     11 O1         -1.0583   -0.9070    3.9289 OS        1 <0>       -0.42530
     12 H1          0.0752   -0.8630    6.3721 HC        1 <0>        0.04064
     13 H2          0.8681   -2.4446    6.1901 HC        1 <0>        0.04064
     14 H3          1.3112   -1.1235    5.1193 HC        1 <0>        0.04064
     15 H4         -2.2427   -1.9648    6.1051 HC        1 <0>        0.04064
     16 H5         -1.4823   -3.5617    5.9192 HC        1 <0>        0.04064
     17 H6         -2.5684   -2.9672    4.6720 HC        1 <0>        0.04064
     18 H7         -2.9738    0.6356    3.0944 HC        1 <0>        0.03683
     19 H8         -3.0736    1.4679    1.5463 HC        1 <0>        0.03683
     20 H9         -3.4213   -0.2670    1.6505 HC        1 <0>        0.03683
     21 H10        -0.0317   -0.1409   -0.0048 HC        1 <0>        0.03683
     22 H11        -1.6791   -0.7344   -0.1628 HC        1 <0>        0.03683
     23 H12        -1.3625    0.9978   -0.2820 HC        1 <0>        0.03683
     24 H13         0.6163    1.2786    2.0762 HC        1 <0>        0.03683
     25 H14        -0.7201    2.3436    1.6626 HC        1 <0>        0.03683
     26 H15        -0.6037    1.6584    3.2936 HC        1 <0>        0.03683
     27 H16        -2.6631   -2.1896    2.1918 HC        1 <0>        0.04242
     28 H17        -1.3232   -3.2203    2.7089 HC        1 <0>        0.04242
     29 H18        -1.4142   -2.5905    1.0447 HC        1 <0>        0.04242
     30 H19         1.3083   -0.5121    2.6625 HC        1 <0>        0.04242
     31 H20         1.0043   -2.2416    2.9616 HC        1 <0>        0.04242
     32 H21         0.9399   -1.6198    1.3353 HC        1 <0>        0.04242
     33 H22        -0.1889   -2.7437    3.9601 H1        1 <0>        0.03954
@<TRIPOS>BOND
     1    1    8 1
     2    2    8 1
     3    3    9 1
     4    4    9 1
     5    5    9 1
     6    6   10 1
     7    7   10 1
     8    8   11 1
     9    9   10 1
    10   10   11 1
    11    1   12 1
    12    1   13 1
    13    1   14 1
    14    2   15 1
    15    2   16 1
    16    2   17 1
    17    3   18 1
    18    3   19 1
    19    3   20 1
    20    4   21 1
    21    4   22 1
    22    4   23 1
    23    5   24 1
    24    5   25 1
    25    5   26 1
    26    6   27 1
    27    6   28 1
    28    6   29 1
    29    7   30 1
    30    7   31 1
    31    7   32 1
    32    8   33 1
@<TRIPOS>SUBSTRUCTURE
     1 <0>         1 GROUP 0 A     ****
