@<TRIPOS>MOLECULE
AlkEthOH_c418
   32    31     1     0     0
SMALL
USER_CHARGES

@<TRIPOS>ATOM
      1 C1         -2.3572   -1.2447   -1.3056 CT        1 <0>       -0.09012
      2 C2         -1.2495   -2.9972    0.0951 CT        1 <0>       -0.09012
      3 C3         -1.0227    2.7032   -0.3927 CT        1 <0>       -0.09012
      4 C4          1.2025    3.3285   -1.3504 CT        1 <0>       -0.09012
      5 C5          0.5107   -0.7734    1.5612 CT        1 <0>       -0.09194
      6 C6          0.1235   -1.1047   -0.9340 CT        1 <0>       -0.07090
      7 C7          0.9104    1.1282   -0.0856 CT        1 <0>       -0.07090
      8 C8         -1.0763   -2.0598   -1.1001 CT        1 <0>       -0.06653
      9 C9          0.2643    2.1658   -1.0265 CT        1 <0>       -0.06653
     10 C10         0.0554   -0.1164    0.2557 CT        1 <0>       -0.06540
     11 H1         -2.5581   -0.6102   -0.4361 HC        1 <0>        0.03305
     12 H2         -2.2667   -0.5916   -2.1801 HC        1 <0>        0.03305
     13 H3         -3.2240   -1.8967   -1.4581 HC        1 <0>        0.03305
     14 H4         -1.3951   -2.4262    1.0186 HC        1 <0>        0.03305
     15 H5         -2.1255   -3.6411   -0.0267 HC        1 <0>        0.03305
     16 H6         -0.3704   -3.6365    0.2288 HC        1 <0>        0.03305
     17 H7         -0.8084    3.2066    0.5560 HC        1 <0>        0.03305
     18 H8         -1.7243    1.8882   -0.1854 HC        1 <0>        0.03305
     19 H9         -1.5223    3.4206   -1.0527 HC        1 <0>        0.03305
     20 H10         1.5162    3.8521   -0.4424 HC        1 <0>        0.03305
     21 H11         0.7212    4.0538   -2.0148 HC        1 <0>        0.03305
     22 H12         2.1111    2.9686   -1.8452 HC        1 <0>        0.03305
     23 H13         1.5480   -1.1149    1.4975 HC        1 <0>        0.03306
     24 H14        -0.1173   -1.6356    1.8093 HC        1 <0>        0.03306
     25 H15         0.4695   -0.0704    2.3983 HC        1 <0>        0.03306
     26 H16         1.0371   -1.7075   -0.8386 HC        1 <0>        0.03911
     27 H17         0.2370   -0.5253   -1.8607 HC        1 <0>        0.03911
     28 H18         1.8524    0.7887   -0.5377 HC        1 <0>        0.03911
     29 H19         1.1869    1.6323    0.8504 HC        1 <0>        0.03911
     30 H20        -0.9340   -2.6688   -2.0000 HC        1 <0>        0.04382
     31 H21        -0.0187    1.6773   -1.9658 HC        1 <0>        0.04382
     32 H22        -0.9846    0.2056    0.3731 HC        1 <0>        0.05282
@<TRIPOS>BOND
     1    1    8 1
     2    2    8 1
     3    3    9 1
     4    4    9 1
     5    5   10 1
     6    6    8 1
     7    6   10 1
     8    7    9 1
     9    7   10 1
    10    1   11 1
    11    1   12 1
    12    1   13 1
    13    2   14 1
    14    2   15 1
    15    2   16 1
    16    3   17 1
    17    3   18 1
    18    3   19 1
    19    4   20 1
    20    4   21 1
    21    4   22 1
    22    5   23 1
    23    5   24 1
    24    5   25 1
    25    6   26 1
    26    6   27 1
    27    7   28 1
    28    7   29 1
    29    8   30 1
    30    9   31 1
    31   10   32 1
@<TRIPOS>SUBSTRUCTURE
     1 <0>         1 GROUP 0 A     ****
