@<TRIPOS>MOLECULE
AlkEthOH_r767
   23    23     1     0     0
SMALL
USER_CHARGES

@<TRIPOS>ATOM
      1 C1         -0.3016   -0.2554   -2.0296 CT        1 <0>        0.09416
      2 C2         -1.5254    0.1646   -1.2397 CT        1 <0>        0.09489
      3 C3          1.0434   -0.0848   -0.1017 CT        1 <0>        0.11705
      4 C4         -0.1782    0.3515    0.7438 CT        1 <0>        0.12337
      5 C5          2.1187   -0.8428    0.6694 CT        1 <0>       -0.08915
      6 C6          0.2163    1.4390    1.7528 CT        1 <0>       -0.09933
      7 C7         -0.8407   -0.8077    1.5062 CT        1 <0>       -0.09933
      8 O1          0.6112   -0.9395   -1.1723 OS        1 <0>       -0.41212
      9 O2         -1.1435    0.9751   -0.1289 OS        1 <0>       -0.41739
     10 H1         -0.5833   -0.9326   -2.8413 H1        1 <0>        0.05501
     11 H2          0.2047    0.6118   -2.4689 H1        1 <0>        0.05501
     12 H3         -2.1987    0.7532   -1.8705 H1        1 <0>        0.05587
     13 H4         -2.0871   -0.7037   -0.8811 H1        1 <0>        0.05587
     14 H5          1.5108    0.7989   -0.5571 H1        1 <0>        0.04399
     15 H6          1.6873   -1.7283    1.1352 HC        1 <0>        0.04740
     16 H7          2.5398   -0.2036    1.4448 HC        1 <0>        0.04740
     17 H8          2.9146   -1.1503   -0.0082 HC        1 <0>        0.04740
     18 H9         -0.6557    1.7276    2.3325 HC        1 <0>        0.04665
     19 H10         0.6002    2.3042    1.2199 HC        1 <0>        0.04665
     20 H11         0.9831    1.0532    2.4185 HC        1 <0>        0.04665
     21 H12        -1.6847   -0.4283    2.0734 HC        1 <0>        0.04665
     22 H13        -0.1175   -1.2524    2.1822 HC        1 <0>        0.04665
     23 H14        -1.1840   -1.5540    0.7968 HC        1 <0>        0.04665
@<TRIPOS>BOND
     1    1    2 1
     2    1    8 1
     3    2    9 1
     4    3    4 1
     5    3    5 1
     6    3    8 1
     7    4    6 1
     8    4    7 1
     9    4    9 1
    10    1   10 1
    11    1   11 1
    12    2   12 1
    13    2   13 1
    14    3   14 1
    15    5   15 1
    16    5   16 1
    17    5   17 1
    18    6   18 1
    19    6   19 1
    20    6   20 1
    21    7   21 1
    22    7   22 1
    23    7   23 1
@<TRIPOS>SUBSTRUCTURE
     1 <0>         1 GROUP 0 A     ****
