@<TRIPOS>MOLECULE
AlkEthOH_r917
   31    31     1     0     0
SMALL
USER_CHARGES

@<TRIPOS>ATOM
      1 C1          1.7768   -1.2513    1.1748 CT        1 <0>       -0.06993
      2 C2          1.7351   -1.1470   -0.3524 CT        1 <0>       -0.07511
      3 C3          1.7278    0.0973    1.9011 CT        1 <0>       -0.09632
      4 C4          0.3786   -1.4760   -0.9853 CT        1 <0>       -0.06500
      5 C5          0.4414    0.8847    1.6864 CT        1 <0>        0.13318
      6 C6         -0.8763   -0.7538   -0.4394 CT        1 <0>       -0.08052
      7 C7         -0.7895    0.8092   -0.4244 CT        1 <0>        0.16309
      8 C8         -2.1037   -1.2825   -1.2031 CT        1 <0>       -0.09185
      9 C9         -0.5768    1.3840   -1.8368 CT        1 <0>       -0.10244
     10 C10        -2.0600    1.4599    0.1564 CT        1 <0>       -0.10244
     11 O1          0.3466    1.2755    0.3228 OS        1 <0>       -0.42339
     12 H1          0.9885   -1.9150    1.5478 HC        1 <0>        0.03503
     13 H2          2.7267   -1.7265    1.4529 HC        1 <0>        0.03503
     14 H3          2.0966   -0.1710   -0.6944 HC        1 <0>        0.04687
     15 H4          2.4527   -1.8734   -0.7574 HC        1 <0>        0.04687
     16 H5          1.8572   -0.0802    2.9752 HC        1 <0>        0.04574
     17 H6          2.5810    0.7025    1.5700 HC        1 <0>        0.04574
     18 H7          0.4585   -1.3096   -2.0672 HC        1 <0>        0.03484
     19 H8          0.2201   -2.5575   -0.8703 HC        1 <0>        0.03484
     20 H9         -0.4241    0.3210    2.0449 H1        1 <0>        0.03668
     21 H10         0.4889    1.8050    2.2788 H1        1 <0>        0.03668
     22 H11        -1.0085   -1.1005    0.5922 HC        1 <0>        0.04749
     23 H12        -2.0387   -0.9739   -2.2410 HC        1 <0>        0.03540
     24 H13        -3.0047   -0.8759   -0.7562 HC        1 <0>        0.03540
     25 H14        -2.1221   -2.3655   -1.1436 HC        1 <0>        0.03540
     26 H15        -0.5229    2.4657   -1.7774 HC        1 <0>        0.04312
     27 H16        -1.4084    1.0929   -2.4693 HC        1 <0>        0.04312
     28 H17         0.3488    0.9930   -2.2454 HC        1 <0>        0.04312
     29 H18        -1.9452    2.5379    0.1426 HC        1 <0>        0.04312
     30 H19        -2.1998    1.1184    1.1758 HC        1 <0>        0.04312
     31 H20        -2.9137    1.1735   -0.4475 HC        1 <0>        0.04312
@<TRIPOS>BOND
     1    1    2 1
     2    1    3 1
     3    2    4 1
     4    3    5 1
     5    4    6 1
     6    5   11 1
     7    6    7 1
     8    6    8 1
     9    7    9 1
    10    7   10 1
    11    7   11 1
    12    1   12 1
    13    1   13 1
    14    2   14 1
    15    2   15 1
    16    3   16 1
    17    3   17 1
    18    4   18 1
    19    4   19 1
    20    5   20 1
    21    5   21 1
    22    6   22 1
    23    8   23 1
    24    8   24 1
    25    8   25 1
    26    9   26 1
    27    9   27 1
    28    9   28 1
    29   10   29 1
    30   10   30 1
    31   10   31 1
@<TRIPOS>SUBSTRUCTURE
     1 <0>         1 GROUP 0 A     ****
