@<TRIPOS>MOLECULE
AlkEthOH_r237
   27    27     1     0     0
SMALL
USER_CHARGES

@<TRIPOS>ATOM
      1 C1          0.3291   -1.8873    1.1758 CT        1 <0>       -0.10997
      2 C2         -1.0255   -1.1699    1.1330 CT        1 <0>       -0.06896
      3 C3          0.0742    1.1232    0.5048 CT        1 <0>       -0.13842
      4 C4          0.9453   -2.1699   -0.1958 CT        1 <0>        0.12673
      5 C5          0.2698   -0.3587   -1.6029 CT        1 <0>        0.13842
      6 C6         -0.9695    0.3509    1.3168 CT        1 <0>        0.15309
      7 C7          0.0034    1.0388   -1.0300 CT        1 <0>        0.13923
      8 C8         -1.3147    1.5892   -1.5801 CT        1 <0>       -0.12542
      9 O1          1.3339   -0.9930   -0.8947 OS        1 <0>       -0.40581
     10 O2         -0.7037    0.5965    2.7049 OH        1 <0>       -0.60355
     11 O3          1.0577    1.8802   -1.5317 OH        1 <0>       -0.58978
     12 H1          1.0377   -1.3262    1.7953 HC        1 <0>        0.05756
     13 H2          0.1821   -2.8572    1.6678 HC        1 <0>        0.05756
     14 H3         -1.5749   -1.4295    0.2234 HC        1 <0>        0.04944
     15 H4         -1.6255   -1.5747    1.9603 HC        1 <0>        0.04944
     16 H5          0.0036    2.1839    0.7912 HC        1 <0>        0.05995
     17 H6          1.0840    0.8583    0.8480 HC        1 <0>        0.05995
     18 H7          1.8615   -2.7504   -0.0391 H1        1 <0>        0.04543
     19 H8          0.2884   -2.7929   -0.8147 H1        1 <0>        0.04543
     20 H9         -0.6348   -0.9744   -1.6198 H1        1 <0>        0.05475
     21 H10         0.6029   -0.2765   -2.6445 H1        1 <0>        0.05475
     22 H11        -1.9683    0.7573    1.1210 H1        1 <0>        0.02588
     23 H12        -1.3199    1.5095   -2.6647 HC        1 <0>        0.04399
     24 H13        -1.4215    2.6336   -1.2960 HC        1 <0>        0.04399
     25 H14        -2.1469    1.0191   -1.1736 HC        1 <0>        0.04399
     26 H15        -0.6714    1.5580    2.8043 HO        1 <0>        0.39773
     27 H16         0.8667    2.7665   -1.1986 HO        1 <0>        0.39460
@<TRIPOS>BOND
     1    1    2 1
     2    1    4 1
     3    2    6 1
     4    3    6 1
     5    3    7 1
     6    4    9 1
     7    5    7 1
     8    5    9 1
     9    6   10 1
    10    7    8 1
    11    7   11 1
    12    1   12 1
    13    1   13 1
    14    2   14 1
    15    2   15 1
    16    3   16 1
    17    3   17 1
    18    4   18 1
    19    4   19 1
    20    5   20 1
    21    5   21 1
    22    6   22 1
    23    8   23 1
    24    8   24 1
    25    8   25 1
    26   10   26 1
    27   11   27 1
@<TRIPOS>SUBSTRUCTURE
     1 <0>         1 GROUP 0 A     ****
