@<TRIPOS>MOLECULE
AlkEthOH_r711
   20    20     1     0     0
SMALL
USER_CHARGES

@<TRIPOS>ATOM
      1 C1         -0.7841    1.5030   -1.0468 CT        1 <0>       -0.14916
      2 C2         -1.3862    1.0250    0.2644 CT        1 <0>        0.13369
      3 C3         -0.0013    0.3772   -1.7027 CT        1 <0>        0.13369
      4 C4          0.3970   -0.5565    0.4627 CT        1 <0>        0.33954
      5 C5          1.5900   -0.8144    1.3875 CT        1 <0>       -0.10790
      6 C6         -0.4032   -1.8576    0.3273 CT        1 <0>       -0.10790
      7 O1         -0.3722    0.4729    1.0999 OS        1 <0>       -0.43664
      8 O2          0.9600   -0.1498   -0.7924 OS        1 <0>       -0.43664
      9 H1         -1.5603    1.8826   -1.7183 HC        1 <0>        0.06041
     10 H2         -0.0898    2.3237   -0.8282 HC        1 <0>        0.06041
     11 H3         -1.8378    1.8671    0.7986 H1        1 <0>        0.04964
     12 H4         -2.1767    0.2858    0.0982 H1        1 <0>        0.04964
     13 H5         -0.6628   -0.4223   -2.0521 H1        1 <0>        0.04964
     14 H6          0.5383    0.7557   -2.5768 H1        1 <0>        0.04964
     15 H7          2.1712    0.0982    1.4966 HC        1 <0>        0.05199
     16 H8          2.2191   -1.5931    0.9631 HC        1 <0>        0.05199
     17 H9          1.2327   -1.1325    2.3641 HC        1 <0>        0.05199
     18 H10        -1.2553   -1.6932   -0.3268 HC        1 <0>        0.05199
     19 H11        -0.7544   -2.1711    1.3066 HC        1 <0>        0.05199
     20 H12         0.2321   -2.6320   -0.0942 HC        1 <0>        0.05199
@<TRIPOS>BOND
     1    1    2 1
     2    1    3 1
     3    2    7 1
     4    3    8 1
     5    4    5 1
     6    4    6 1
     7    4    7 1
     8    4    8 1
     9    1    9 1
    10    1   10 1
    11    2   11 1
    12    2   12 1
    13    3   13 1
    14    3   14 1
    15    5   15 1
    16    5   16 1
    17    5   17 1
    18    6   18 1
    19    6   19 1
    20    6   20 1
@<TRIPOS>SUBSTRUCTURE
     1 <0>         1 GROUP 0 A     ****
