@<TRIPOS>MOLECULE
AlkEthOH_r745
   25    25     1     0     0
SMALL
USER_CHARGES

@<TRIPOS>ATOM
      1 C1          0.2555   -0.0883    2.0499 CT        1 <0>       -0.11198
      2 C2          0.5261   -1.1479    0.9856 CT        1 <0>       -0.07142
      3 C3          0.6118    1.2962    1.5333 CT        1 <0>        0.12915
      4 C4          0.3096    0.6673   -0.7416 CT        1 <0>        0.14823
      5 C5         -0.1062   -0.7887   -0.3829 CT        1 <0>       -0.07712
      6 C6         -0.3082    1.2142   -2.0266 CT        1 <0>       -0.09005
      7 C7          0.4163   -1.7850   -1.4343 CT        1 <0>       -0.08482
      8 C8         -1.6394   -0.9386   -0.2929 CT        1 <0>       -0.08482
      9 O1         -0.0655    1.5709    0.3094 OS        1 <0>       -0.41601
     10 H1         -0.8058   -0.1136    2.3223 HC        1 <0>        0.04957
     11 H2          0.8266   -0.3109    2.9577 HC        1 <0>        0.04957
     12 H3          1.6139   -1.2465    0.8683 HC        1 <0>        0.04170
     13 H4          0.1645   -2.1219    1.3377 HC        1 <0>        0.04170
     14 H5          0.3070    2.0546    2.2615 H1        1 <0>        0.04470
     15 H6          1.6930    1.3999    1.3839 H1        1 <0>        0.04470
     16 H7          1.4012    0.7178   -0.8573 H1        1 <0>        0.03101
     17 H8         -1.3943    1.1831   -1.9565 HC        1 <0>        0.04511
     18 H9          0.0116    0.6120   -2.8754 HC        1 <0>        0.04511
     19 H10         0.0099    2.2442   -2.1799 HC        1 <0>        0.04511
     20 H11        -0.0182   -1.5460   -2.3988 HC        1 <0>        0.03676
     21 H12         0.1330   -2.7908   -1.1439 HC        1 <0>        0.03676
     22 H13         1.4968   -1.7101   -1.4902 HC        1 <0>        0.03676
     23 H14        -2.0759   -0.6863   -1.2519 HC        1 <0>        0.03676
     24 H15        -2.0155   -0.2689    0.4713 HC        1 <0>        0.03676
     25 H16        -1.8796   -1.9636   -0.0363 HC        1 <0>        0.03676
@<TRIPOS>BOND
     1    1    2 1
     2    1    3 1
     3    2    5 1
     4    3    9 1
     5    4    5 1
     6    4    6 1
     7    4    9 1
     8    5    7 1
     9    5    8 1
    10    1   10 1
    11    1   11 1
    12    2   12 1
    13    2   13 1
    14    3   14 1
    15    3   15 1
    16    4   16 1
    17    6   17 1
    18    6   18 1
    19    6   19 1
    20    7   20 1
    21    7   21 1
    22    7   22 1
    23    8   23 1
    24    8   24 1
    25    8   25 1
@<TRIPOS>SUBSTRUCTURE
     1 <0>         1 GROUP 0 A     ****
