@<TRIPOS>MOLECULE
AlkEthOH_r430
   26    26     1     0     0
SMALL
USER_CHARGES

@<TRIPOS>ATOM
      1 C1          1.6297    1.1715    0.5119 CT        1 <0>       -0.07289
      2 C2          2.2998   -0.1860    0.3160 CT        1 <0>       -0.11348
      3 C3          0.2724    1.0661    1.2160 CT        1 <0>       -0.07488
      4 C4          1.8083   -0.9585   -0.9034 CT        1 <0>        0.13915
      5 C5         -0.4892   -0.9216   -0.2267 CT        1 <0>        0.34805
      6 C6         -0.8965    0.4326    0.4150 CT        1 <0>       -0.05679
      7 C7         -1.3739    1.4253   -0.6685 CT        1 <0>       -0.08397
      8 C8         -2.0699    0.2121    1.3967 CT        1 <0>       -0.08397
      9 O1          0.4615   -0.6954   -1.2622 OS        1 <0>       -0.45136
     10 O2         -1.6421   -1.5462   -0.7947 OH        1 <0>       -0.60825
     11 H1          2.2829    1.7749    1.1553 HC        1 <0>        0.04882
     12 H2          1.5491    1.7125   -0.4368 HC        1 <0>        0.04882
     13 H3          3.3848   -0.0535    0.2235 HC        1 <0>        0.04529
     14 H4          2.1546   -0.7974    1.2154 HC        1 <0>        0.04529
     15 H5          0.4166    0.5005    2.1470 HC        1 <0>        0.04033
     16 H6         -0.0217    2.0765    1.5316 HC        1 <0>        0.04033
     17 H7          2.4175   -0.6783   -1.7699 H1        1 <0>        0.04443
     18 H8          1.9467   -2.0363   -0.7595 H1        1 <0>        0.04443
     19 H9         -0.0985   -1.6072    0.5366 H2        1 <0>        0.03350
     20 H10        -2.1888    0.9759   -1.2222 HC        1 <0>        0.04113
     21 H11        -0.5483    1.6417   -1.3349 HC        1 <0>        0.04113
     22 H12        -1.7103    2.3353   -0.1875 HC        1 <0>        0.04113
     23 H13        -2.8989   -0.2301    0.8587 HC        1 <0>        0.04113
     24 H14        -2.3645    1.1679    1.8113 HC        1 <0>        0.04113
     25 H15        -1.7450   -0.4514    2.1881 HC        1 <0>        0.04113
     26 H16        -1.3375   -2.3813   -1.1796 HO        1 <0>        0.42037
@<TRIPOS>BOND
     1    1    2 1
     2    1    3 1
     3    2    4 1
     4    3    6 1
     5    4    9 1
     6    5    6 1
     7    5    9 1
     8    5   10 1
     9    6    7 1
    10    6    8 1
    11    1   11 1
    12    1   12 1
    13    2   13 1
    14    2   14 1
    15    3   15 1
    16    3   16 1
    17    4   17 1
    18    4   18 1
    19    5   19 1
    20    7   20 1
    21    7   21 1
    22    7   22 1
    23    8   23 1
    24    8   24 1
    25    8   25 1
    26   10   26 1
@<TRIPOS>SUBSTRUCTURE
     1 <0>         1 GROUP 0 A     ****
