@<TRIPOS>MOLECULE
AlkEthOH_r210
   28    28     1     0     0
SMALL
USER_CHARGES

@<TRIPOS>ATOM
      1 C1         -0.8709   -0.2450   -2.2182 CT        1 <0>       -0.09788
      2 C2         -0.8186   -1.7125   -1.7977 CT        1 <0>       -0.09778
      3 C3         -1.6543    0.6765   -1.2841 CT        1 <0>        0.14433
      4 C4         -0.2566   -1.9671   -0.4044 CT        1 <0>        0.14433
      5 C5          0.0221    1.0156    0.4720 CT        1 <0>        0.34759
      6 C6          0.8534   -0.2426    0.8918 CT        1 <0>        0.34759
      7 C7         -0.1975    1.9706    1.6547 CT        1 <0>       -0.11749
      8 C8          2.3147    0.1125    1.2122 CT        1 <0>       -0.11749
      9 O1         -1.3044    0.6097    0.0930 OS        1 <0>       -0.44742
     10 O2          0.9232   -1.1975   -0.1835 OS        1 <0>       -0.44742
     11 O3          0.7067    1.7957   -0.5111 OH        1 <0>       -0.60646
     12 O4          0.2820   -0.8160    2.0752 OH        1 <0>       -0.60646
     13 H1          0.1564    0.1189   -2.3276 HC        1 <0>        0.04958
     14 H2         -1.3136   -0.1822   -3.2199 HC        1 <0>        0.04958
     15 H3         -1.8154   -2.1625   -1.8721 HC        1 <0>        0.04958
     16 H4         -0.1856   -2.2360   -2.5256 HC        1 <0>        0.04958
     17 H5         -1.5867    1.7154   -1.6268 H1        1 <0>        0.04702
     18 H6         -2.7142    0.4040   -1.3428 H1        1 <0>        0.04702
     19 H7         -1.0274   -1.7988    0.3549 H1        1 <0>        0.04702
     20 H8          0.0244   -3.0230   -0.3237 H1        1 <0>        0.04702
     21 H9         -0.7759    2.8267    1.3223 HC        1 <0>        0.05730
     22 H10         0.7647    2.3043    2.0301 HC        1 <0>        0.05730
     23 H11        -0.7352    1.4503    2.4411 HC        1 <0>        0.05730
     24 H12         2.8489   -0.7883    1.4970 HC        1 <0>        0.05730
     25 H13         2.3398    0.8252    2.0304 HC        1 <0>        0.05730
     26 H14         2.7789    0.5493    0.3337 HC        1 <0>        0.05730
     27 H15         0.1286    2.5459   -0.7117 HO        1 <0>        0.41218
     28 H16         0.8280   -1.5849    2.2921 HO        1 <0>        0.41218
@<TRIPOS>BOND
     1    1    2 1
     2    1    3 1
     3    2    4 1
     4    3    9 1
     5    4   10 1
     6    5    6 1
     7    5    7 1
     8    5    9 1
     9    5   11 1
    10    6    8 1
    11    6   10 1
    12    6   12 1
    13    1   13 1
    14    1   14 1
    15    2   15 1
    16    2   16 1
    17    3   17 1
    18    3   18 1
    19    4   19 1
    20    4   20 1
    21    7   21 1
    22    7   22 1
    23    7   23 1
    24    8   24 1
    25    8   25 1
    26    8   26 1
    27   11   27 1
    28   12   28 1
@<TRIPOS>SUBSTRUCTURE
     1 <0>         1 GROUP 0 A     ****
