@<TRIPOS>MOLECULE
AlkEthOH_c245
   24    23     1     0     0
SMALL
USER_CHARGES

@<TRIPOS>ATOM
      1 C1          0.7961   -0.1186    2.0032 CT        1 <0>       -0.11641
      2 C2          2.5643   -0.3964    0.2735 CT        1 <0>       -0.11641
      3 C3         -1.8159   -1.0977    0.5152 CT        1 <0>       -0.11262
      4 C4         -1.5864   -0.3265   -1.8404 CT        1 <0>        0.10712
      5 C5          1.1750    0.1826    0.5534 CT        1 <0>        0.36666
      6 C6         -1.0855   -0.1176   -0.4039 CT        1 <0>        0.32572
      7 O1         -0.9486    0.5991   -2.7177 OH        1 <0>       -0.60064
      8 O2          1.2936    1.5917    0.3538 OH        1 <0>       -0.61880
      9 O3         -1.4163    1.2064    0.0089 OH        1 <0>       -0.62568
     10 O4          0.3129   -0.4336   -0.4074 OS        1 <0>       -0.47997
     11 H1         -0.1957    0.2820    2.2411 HC        1 <0>        0.05345
     12 H2          0.7389   -1.1957    2.1879 HC        1 <0>        0.05345
     13 H3          1.5267    0.3019    2.7016 HC        1 <0>        0.05345
     14 H4          2.8768   -0.2028   -0.7584 HC        1 <0>        0.05345
     15 H5          2.5960   -1.4751    0.4618 HC        1 <0>        0.05345
     16 H6          3.3114    0.0666    0.9294 HC        1 <0>        0.05345
     17 H7         -1.4883   -0.9835    1.5546 HC        1 <0>        0.05153
     18 H8         -2.9011   -0.9584    0.4643 HC        1 <0>        0.05153
     19 H9         -1.6103   -2.1360    0.2405 HC        1 <0>        0.05153
     20 H10        -2.6641   -0.1496   -1.9151 H1        1 <0>        0.06458
     21 H11        -1.3622   -1.3347   -2.2045 H1        1 <0>        0.06458
     22 H12        -1.2989    0.4243   -3.6046 HO        1 <0>        0.41731
     23 H13         1.9861    1.9220    0.9504 HO        1 <0>        0.41410
     24 H14        -2.3795    1.3140   -0.0666 HO        1 <0>        0.43517
@<TRIPOS>BOND
     1    1    5 1
     2    2    5 1
     3    3    6 1
     4    4    6 1
     5    4    7 1
     6    5    8 1
     7    5   10 1
     8    6    9 1
     9    6   10 1
    10    1   11 1
    11    1   12 1
    12    1   13 1
    13    2   14 1
    14    2   15 1
    15    2   16 1
    16    3   17 1
    17    3   18 1
    18    3   19 1
    19    4   20 1
    20    4   21 1
    21    7   22 1
    22    8   23 1
    23    9   24 1
@<TRIPOS>SUBSTRUCTURE
     1 <0>         1 GROUP 0 A     ****
