@<TRIPOS>MOLECULE
AlkEthOH_r775
   34    34     1     0     0
SMALL
USER_CHARGES

@<TRIPOS>ATOM
      1 C1          0.4613    1.2541   -2.2528 CT        1 <0>       -0.06255
      2 C2          0.4806   -0.2246   -1.8341 CT        1 <0>       -0.07767
      3 C3          0.1422    2.2927   -1.1644 CT        1 <0>       -0.10855
      4 C4          1.4016   -0.5187   -0.6438 CT        1 <0>       -0.06357
      5 C5         -0.5609   -1.0727    1.0228 CT        1 <0>       -0.07452
      6 C6         -1.2245    2.1575   -0.4943 CT        1 <0>        0.13541
      7 C7         -0.8346    0.4386    1.1624 CT        1 <0>        0.14180
      8 C8          0.8342   -1.4730    0.4413 CT        1 <0>       -0.04666
      9 C9         -1.7832    0.7093    2.3281 CT        1 <0>       -0.11543
     10 C10         0.7312   -2.9015   -0.1320 CT        1 <0>       -0.08951
     11 C11         1.8536   -1.5056    1.6040 CT        1 <0>       -0.08951
     12 O1         -1.5014    0.8439   -0.0371 OS        1 <0>       -0.42222
     13 H1          1.4438    1.5029   -2.6741 HC        1 <0>        0.03476
     14 H2         -0.2591    1.3699   -3.0722 HC        1 <0>        0.03476
     15 H3         -0.5404   -0.5757   -1.6645 HC        1 <0>        0.04911
     16 H4          0.8321   -0.8113   -2.6933 HC        1 <0>        0.04911
     17 H5          0.9249    2.2846   -0.4003 HC        1 <0>        0.04018
     18 H6          0.1973    3.2904   -1.6188 HC        1 <0>        0.04018
     19 H7          2.3300   -0.9515   -1.0435 HC        1 <0>        0.03451
     20 H8          1.7310    0.4049   -0.1608 HC        1 <0>        0.03451
     21 H9         -0.6684   -1.5582    2.0022 HC        1 <0>        0.05244
     22 H10        -1.3465   -1.5094    0.3905 HC        1 <0>        0.05244
     23 H11        -1.3263    2.8771    0.3258 H1        1 <0>        0.04193
     24 H12        -1.9989    2.4024   -1.2296 H1        1 <0>        0.04193
     25 H13         0.0928    0.9957    1.3252 H1        1 <0>        0.04435
     26 H14        -2.7132    0.1618    2.1826 HC        1 <0>        0.04053
     27 H15        -2.0022    1.7743    2.3865 HC        1 <0>        0.04053
     28 H16        -1.3229    0.3883    3.2613 HC        1 <0>        0.04053
     29 H17         0.3347   -3.5611    0.6309 HC        1 <0>        0.03353
     30 H18         1.7182   -3.2347   -0.4306 HC        1 <0>        0.03353
     31 H19         0.0700   -2.8912   -0.9905 HC        1 <0>        0.03353
     32 H20         1.4816   -2.1658    2.3768 HC        1 <0>        0.03353
     33 H21         1.9695   -0.5033    1.9956 HC        1 <0>        0.03353
     34 H22         2.8010   -1.8699    1.2282 HC        1 <0>        0.03353
@<TRIPOS>BOND
     1    1    2 1
     2    1    3 1
     3    2    4 1
     4    3    6 1
     5    4    8 1
     6    5    7 1
     7    5    8 1
     8    6   12 1
     9    7    9 1
    10    7   12 1
    11    8   10 1
    12    8   11 1
    13    1   13 1
    14    1   14 1
    15    2   15 1
    16    2   16 1
    17    3   17 1
    18    3   18 1
    19    4   19 1
    20    4   20 1
    21    5   21 1
    22    5   22 1
    23    6   23 1
    24    6   24 1
    25    7   25 1
    26    9   26 1
    27    9   27 1
    28    9   28 1
    29   10   29 1
    30   10   30 1
    31   10   31 1
    32   11   32 1
    33   11   33 1
    34   11   34 1
@<TRIPOS>SUBSTRUCTURE
     1 <0>         1 GROUP 0 A     ****
