@<TRIPOS>MOLECULE
AlkEthOH_r571
   18    18     1     0     0
SMALL
USER_CHARGES

@<TRIPOS>ATOM
      1 C1          0.0497    1.2029   -0.5054 CT        1 <0>       -0.16322
      2 C2         -0.8543    1.3968    0.7079 CT        1 <0>        0.13483
      3 C3         -1.0673   -0.9331    0.8832 CT        1 <0>        0.32577
      4 C4          0.7371   -0.1692   -0.4547 CT        1 <0>        0.34552
      5 C5          1.4495   -0.4576   -1.7747 CT        1 <0>       -0.11387
      6 O1         -1.7681    0.3061    0.8052 OS        1 <0>       -0.44042
      7 O2         -0.2508   -1.1887   -0.2588 OS        1 <0>       -0.42659
      8 O3          1.7042   -0.1573    0.5972 OH        1 <0>       -0.62204
      9 H1         -0.5800    1.2535   -1.4027 HC        1 <0>        0.06265
     10 H2          0.7851    2.0138   -0.5499 HC        1 <0>        0.06265
     11 H3         -0.2750    1.4714    1.6358 H1        1 <0>        0.05574
     12 H4         -1.4355    2.3183    0.6038 H1        1 <0>        0.05574
     13 H5         -0.4717   -0.9791    1.8031 H2        1 <0>        0.07239
     14 H6         -1.8141   -1.7306    0.9372 H2        1 <0>        0.07239
     15 H7          1.9330   -1.4320   -1.7279 HC        1 <0>        0.05529
     16 H8          2.2028    0.3058   -1.9618 HC        1 <0>        0.05529
     17 H9          0.7289   -0.4556   -2.5909 HC        1 <0>        0.05529
     18 H10         2.3343    0.5457    0.3801 HO        1 <0>        0.41259
@<TRIPOS>BOND
     1    1    2 1
     2    1    4 1
     3    2    6 1
     4    3    6 1
     5    3    7 1
     6    4    5 1
     7    4    7 1
     8    4    8 1
     9    1    9 1
    10    1   10 1
    11    2   11 1
    12    2   12 1
    13    3   13 1
    14    3   14 1
    15    5   15 1
    16    5   16 1
    17    5   17 1
    18    8   18 1
@<TRIPOS>SUBSTRUCTURE
     1 <0>         1 GROUP 0 A     ****
