@<TRIPOS>MOLECULE
AlkEthOH_r758
   27    27     1     0     0
SMALL
USER_CHARGES

@<TRIPOS>ATOM
      1 C1          1.1750    0.5276    2.0102 CT        1 <0>       -0.15126
      2 C2          1.2537   -0.9958    1.8926 CT        1 <0>        0.13773
      3 C3          1.6511    1.2820    0.7675 CT        1 <0>        0.13788
      4 C4         -0.7405   -1.2688    0.5871 CT        1 <0>        0.10314
      5 C5         -0.3509    0.9969   -0.5381 CT        1 <0>        0.15282
      6 C6         -1.0325   -0.3947   -0.6524 CT        1 <0>        0.12264
      7 C7         -0.6133    1.9238   -1.7262 CT        1 <0>       -0.10048
      8 C8         -0.6101   -1.1537   -1.9204 CT        1 <0>       -0.11298
      9 O1          0.6530   -1.5290    0.7164 OS        1 <0>       -0.39897
     10 O2          1.0672    0.8286   -0.4498 OS        1 <0>       -0.40258
     11 O3         -2.4526   -0.2168   -0.6869 OH        1 <0>       -0.60434
     12 H1          0.1409    0.8146    2.2277 HC        1 <0>        0.05157
     13 H2          1.7642    0.8524    2.8758 HC        1 <0>        0.05157
     14 H3          2.3064   -1.2983    1.8728 H1        1 <0>        0.04641
     15 H4          0.8026   -1.4691    2.7725 H1        1 <0>        0.04641
     16 H5          1.4683    2.3571    0.8782 H1        1 <0>        0.04668
     17 H6          2.7338    1.1513    0.6642 H1        1 <0>        0.04668
     18 H7         -1.1729   -0.8266    1.4934 H1        1 <0>        0.04367
     19 H8         -1.2442   -2.2374    0.4769 H1        1 <0>        0.04367
     20 H9         -0.7506    1.5150    0.3433 H1        1 <0>        0.04803
     21 H10        -0.2380    1.4656   -2.6388 HC        1 <0>        0.04657
     22 H11        -0.1081    2.8744   -1.5684 HC        1 <0>        0.04657
     23 H12        -1.6826    2.0982   -1.8261 HC        1 <0>        0.04657
     24 H13        -0.8152   -0.5398   -2.7918 HC        1 <0>        0.05008
     25 H14        -1.1709   -2.0807   -1.9879 HC        1 <0>        0.05008
     26 H15         0.4519   -1.3730   -1.8709 HC        1 <0>        0.05008
     27 H16        -2.8339   -1.1035   -0.7592 HO        1 <0>        0.40176
@<TRIPOS>BOND
     1    1    2 1
     2    1    3 1
     3    2    9 1
     4    3   10 1
     5    4    6 1
     6    4    9 1
     7    5    6 1
     8    5    7 1
     9    5   10 1
    10    6    8 1
    11    6   11 1
    12    1   12 1
    13    1   13 1
    14    2   14 1
    15    2   15 1
    16    3   16 1
    17    3   17 1
    18    4   18 1
    19    4   19 1
    20    5   20 1
    21    7   21 1
    22    7   22 1
    23    7   23 1
    24    8   24 1
    25    8   25 1
    26    8   26 1
    27   11   27 1
@<TRIPOS>SUBSTRUCTURE
     1 <0>         1 GROUP 0 A     ****
