@<TRIPOS>MOLECULE
AlkEthOH_r752
   24    24     1     0     0
SMALL
USER_CHARGES

@<TRIPOS>ATOM
      1 C1         -1.0743    0.0244   -1.2368 CT        1 <0>       -0.13619
      2 C2         -0.8310   -1.4782   -1.1272 CT        1 <0>        0.14118
      3 C3         -0.0048   -1.8902    1.0632 CT        1 <0>        0.32491
      4 C4          0.2619    0.4884    0.9300 CT        1 <0>        0.16173
      5 C5         -0.0314    0.9220   -0.5302 CT        1 <0>        0.13331
      6 C6          1.2394    1.4126    1.6584 CT        1 <0>       -0.09687
      7 C7         -0.5161    2.3781   -0.6055 CT        1 <0>       -0.12614
      8 O1         -1.1323   -1.9021    0.1965 OS        1 <0>       -0.46097
      9 O2          0.8935   -0.7969    0.9212 OS        1 <0>       -0.43054
     10 O3          1.1952    0.8419   -1.2696 OH        1 <0>       -0.57728
     11 H1         -1.0958    0.2792   -2.3044 HC        1 <0>        0.05300
     12 H2         -2.0671    0.2434   -0.8226 HC        1 <0>        0.05300
     13 H3         -1.5343   -1.9943   -1.7898 H1        1 <0>        0.05888
     14 H4          0.1796   -1.7726   -1.4330 H1        1 <0>        0.05888
     15 H5         -0.3689   -1.9205    2.0957 H2        1 <0>        0.05821
     16 H6          0.5656   -2.8100    0.8966 H2        1 <0>        0.05821
     17 H7         -0.6638    0.4596    1.5110 H1        1 <0>        0.05210
     18 H8          2.1755    1.4653    1.1064 HC        1 <0>        0.04895
     19 H9          1.4338    1.0273    2.6573 HC        1 <0>        0.04895
     20 H10         0.8125    2.4105    1.7360 HC        1 <0>        0.04895
     21 H11         0.2052    3.0233   -0.1135 HC        1 <0>        0.04473
     22 H12        -1.4781    2.4631   -0.1097 HC        1 <0>        0.04473
     23 H13        -0.6158    2.6706   -1.6463 HC        1 <0>        0.04473
     24 H14         0.9914    1.1598   -2.1600 HO        1 <0>        0.39354
@<TRIPOS>BOND
     1    1    2 1
     2    1    5 1
     3    2    8 1
     4    3    8 1
     5    3    9 1
     6    4    5 1
     7    4    6 1
     8    4    9 1
     9    5    7 1
    10    5   10 1
    11    1   11 1
    12    1   12 1
    13    2   13 1
    14    2   14 1
    15    3   15 1
    16    3   16 1
    17    4   17 1
    18    6   18 1
    19    6   19 1
    20    6   20 1
    21    7   21 1
    22    7   22 1
    23    7   23 1
    24   10   24 1
@<TRIPOS>SUBSTRUCTURE
     1 <0>         1 GROUP 0 A     ****
