@<TRIPOS>MOLECULE
AlkEthOH_c311
   23    22     1     0     0
SMALL
USER_CHARGES

@<TRIPOS>ATOM
      1 C1         -1.5350    0.9521   -1.1954 CT        1 <0>       -0.08803
      2 C2          0.7338    1.9878   -1.1120 CT        1 <0>       -0.08803
      3 C3         -0.3041   -1.7057   -0.3251 CT        1 <0>       -0.13904
      4 C4          0.5144   -0.5264    2.2814 CT        1 <0>        0.33158
      5 C5         -0.0303    0.6585   -1.2285 CT        1 <0>       -0.07088
      6 C6          0.4199   -0.3646   -0.1415 CT        1 <0>        0.34982
      7 O1         -0.4617   -1.4936    2.6405 OH        1 <0>       -0.63350
      8 O2          1.8257   -0.5682   -0.3377 OH        1 <0>       -0.63293
      9 O3          0.1441    0.2304    1.1352 OS        1 <0>       -0.39728
     10 H1         -1.8256    1.3706   -0.2253 HC        1 <0>        0.04144
     11 H2         -2.1267    0.0453   -1.3580 HC        1 <0>        0.04144
     12 H3         -1.8159    1.6859   -1.9564 HC        1 <0>        0.04144
     13 H4          0.5350    2.4624   -0.1448 HC        1 <0>        0.04144
     14 H5          0.4262    2.6943   -1.8894 HC        1 <0>        0.04144
     15 H6          1.8156    1.8396   -1.1946 HC        1 <0>        0.04144
     16 H7          0.0071   -2.4306    0.4355 HC        1 <0>        0.05427
     17 H8         -0.0569   -2.1558   -1.2927 HC        1 <0>        0.05427
     18 H9         -1.3898   -1.5992   -0.2423 HC        1 <0>        0.05427
     19 H10         1.4775   -1.0259    2.1398 H2        1 <0>        0.04940
     20 H11         0.6278    0.1681    3.1201 H2        1 <0>        0.04940
     21 H12         0.2145    0.2423   -2.2153 HC        1 <0>        0.03940
     22 H13        -0.1290   -1.9596    3.4262 HO        1 <0>        0.40686
     23 H14         1.9680   -0.9061   -1.2374 HO        1 <0>        0.41178
@<TRIPOS>BOND
     1    1    5 1
     2    2    5 1
     3    3    6 1
     4    4    7 1
     5    4    9 1
     6    5    6 1
     7    6    8 1
     8    6    9 1
     9    1   10 1
    10    1   11 1
    11    1   12 1
    12    2   13 1
    13    2   14 1
    14    2   15 1
    15    3   16 1
    16    3   17 1
    17    3   18 1
    18    4   19 1
    19    4   20 1
    20    5   21 1
    21    7   22 1
    22    8   23 1
@<TRIPOS>SUBSTRUCTURE
     1 <0>         1 GROUP 0 A     ****
