@<TRIPOS>MOLECULE
AlkEthOH_c614
   28    27     1     0     0
SMALL
USER_CHARGES

@<TRIPOS>ATOM
      1 C1         -0.4861    0.3780   -0.9588 CT        1 <0>       -0.12472
      2 C2         -5.0959    0.9014   -0.9379 CT        1 <0>       -0.08878
      3 C3         -4.7563    1.7190   -3.2812 CT        1 <0>       -0.08878
      4 C4         -3.7842    2.9832   -1.3628 CT        1 <0>       -0.08878
      5 C5         -2.7630    0.7761   -1.9617 CT        1 <0>       -0.06402
      6 C6         -2.1020   -0.2732    1.5030 CT        1 <0>        0.32494
      7 C7         -1.9541    0.6663   -0.6598 CT        1 <0>        0.13975
      8 C8         -4.0999    1.5714   -1.8998 CT        1 <0>       -0.04996
      9 O1         -2.6782    0.8678    2.1224 OH        1 <0>       -0.62843
     10 O2         -2.4604   -0.4032    0.1319 OS        1 <0>       -0.41426
     11 H1         -0.3713   -0.5402   -1.5430 HC        1 <0>        0.04006
     12 H2         -0.0399    1.2047   -1.5221 HC        1 <0>        0.04006
     13 H3          0.0911    0.2811   -0.0325 HC        1 <0>        0.04006
     14 H4         -4.6720    0.7742    0.0634 HC        1 <0>        0.03562
     15 H5         -5.3794   -0.0951   -1.2963 HC        1 <0>        0.03562
     16 H6         -6.0133    1.4930   -0.8433 HC        1 <0>        0.03562
     17 H7         -4.0744    2.1939   -3.9950 HC        1 <0>        0.03562
     18 H8         -5.6587    2.3388   -3.2236 HC        1 <0>        0.03562
     19 H9         -5.0632    0.7517   -3.6913 HC        1 <0>        0.03562
     20 H10        -3.0754    3.5051   -2.0156 HC        1 <0>        0.03562
     21 H11        -4.6899    3.5969   -1.2984 HC        1 <0>        0.03562
     22 H12        -3.3441    2.9367   -0.3601 HC        1 <0>        0.03562
     23 H13        -2.9856   -0.2399   -2.3163 HC        1 <0>        0.04991
     24 H14        -2.1271    1.2422   -2.7267 HC        1 <0>        0.04991
     25 H15        -1.0134   -0.2644    1.6314 H2        1 <0>        0.03609
     26 H16        -2.4905   -1.1543    2.0218 H2        1 <0>        0.03609
     27 H17        -2.0232    1.5890   -0.0764 H1        1 <0>        0.06212
     28 H18        -2.3806    0.8739    3.0478 HO        1 <0>        0.40816
@<TRIPOS>BOND
     1    1    7 1
     2    2    8 1
     3    3    8 1
     4    4    8 1
     5    5    7 1
     6    5    8 1
     7    6    9 1
     8    6   10 1
     9    7   10 1
    10    1   11 1
    11    1   12 1
    12    1   13 1
    13    2   14 1
    14    2   15 1
    15    2   16 1
    16    3   17 1
    17    3   18 1
    18    3   19 1
    19    4   20 1
    20    4   21 1
    21    4   22 1
    22    5   23 1
    23    5   24 1
    24    6   25 1
    25    6   26 1
    26    7   27 1
    27    9   28 1
@<TRIPOS>SUBSTRUCTURE
     1 <0>         1 GROUP 0 A     ****
