@<TRIPOS>MOLECULE
AlkEthOH_r223
   35    35     1     0     0
SMALL
USER_CHARGES

@<TRIPOS>ATOM
      1 C1         -0.2848    1.3931   -2.5422 CT        1 <0>       -0.07064
      2 C2         -0.4223    1.8764   -1.0976 CT        1 <0>       -0.06567
      3 C3         -0.1758   -0.1225   -2.7890 CT        1 <0>       -0.08676
      4 C4          0.7475    1.5039   -0.1822 CT        1 <0>       -0.10565
      5 C5         -0.5897   -0.1953    1.2967 CT        1 <0>       -0.08273
      6 C6         -0.7764   -1.0255   -1.7125 CT        1 <0>        0.13643
      7 C7          0.3330    1.0570    1.2389 CT        1 <0>        0.16505
      8 C8         -0.1324   -1.5107    0.6022 CT        1 <0>        0.16447
      9 C9         -0.3553    2.2133    1.9849 CT        1 <0>       -0.12685
     10 C10         1.1246   -2.0855    1.2750 CT        1 <0>       -0.10386
     11 C11        -1.2423   -2.5727    0.7139 CT        1 <0>       -0.10386
     12 O1          0.2446   -1.2961   -0.7583 OS        1 <0>       -0.42392
     13 O2          1.5294    0.7645    1.9702 OH        1 <0>       -0.60108
     14 H1         -1.1665    1.7557   -3.0875 HC        1 <0>        0.03567
     15 H2          0.5744    1.8877   -3.0129 HC        1 <0>        0.03567
     16 H3         -0.5058    2.9712   -1.1141 HC        1 <0>        0.03504
     17 H4         -1.3810    1.5306   -0.7022 HC        1 <0>        0.03504
     18 H5         -0.6694   -0.3344   -3.7456 HC        1 <0>        0.05003
     19 H6          0.8840   -0.3736   -2.9244 HC        1 <0>        0.05003
     20 H7          1.4036    0.7541   -0.6358 HC        1 <0>        0.05616
     21 H8          1.4053    2.3809   -0.0938 HC        1 <0>        0.05616
     22 H9         -0.7664   -0.4352    2.3555 HC        1 <0>        0.05071
     23 H10        -1.5719    0.0834    0.8968 HC        1 <0>        0.05071
     24 H11        -1.6762   -0.5866   -1.2741 H1        1 <0>        0.03014
     25 H12        -1.0563   -1.9845   -2.1621 H1        1 <0>        0.03014
     26 H13        -0.6381    1.8805    2.9781 HC        1 <0>        0.04091
     27 H14        -1.2404    2.5170    1.4356 HC        1 <0>        0.04091
     28 H15         0.3321    3.0493    2.0615 HC        1 <0>        0.04091
     29 H16         1.4168   -2.9999    0.7685 HC        1 <0>        0.04518
     30 H17         0.9083   -2.2992    2.3169 HC        1 <0>        0.04518
     31 H18         1.9296   -1.3601    1.2111 HC        1 <0>        0.04518
     32 H19        -0.9134   -3.4843    0.2271 HC        1 <0>        0.04518
     33 H20        -2.1397   -2.2023    0.2306 HC        1 <0>        0.04518
     34 H21        -1.4438   -2.7685    1.7614 HC        1 <0>        0.04518
     35 H22         2.0430    1.5846    1.9852 HO        1 <0>        0.39576
@<TRIPOS>BOND
     1    1    2 1
     2    1    3 1
     3    2    4 1
     4    3    6 1
     5    4    7 1
     6    5    7 1
     7    5    8 1
     8    6   12 1
     9    7    9 1
    10    7   13 1
    11    8   10 1
    12    8   11 1
    13    8   12 1
    14    1   14 1
    15    1   15 1
    16    2   16 1
    17    2   17 1
    18    3   18 1
    19    3   19 1
    20    4   20 1
    21    4   21 1
    22    5   22 1
    23    5   23 1
    24    6   24 1
    25    6   25 1
    26    9   26 1
    27    9   27 1
    28    9   28 1
    29   10   29 1
    30   10   30 1
    31   10   31 1
    32   11   32 1
    33   11   33 1
    34   11   34 1
    35   13   35 1
@<TRIPOS>SUBSTRUCTURE
     1 <0>         1 GROUP 0 A     ****
