@<TRIPOS>MOLECULE
AlkEthOH_r884
   24    24     1     0     0
SMALL
USER_CHARGES

@<TRIPOS>ATOM
      1 C1         -0.8301   -1.0508   -1.6889 CT        1 <0>       -0.07226
      2 C2         -0.1321    0.1593   -1.0775 CT        1 <0>       -0.07226
      3 C3          0.0548   -2.2097   -2.1351 CT        1 <0>       -0.07182
      4 C4          1.2036    0.5249   -1.7156 CT        1 <0>       -0.07182
      5 C5          1.2147   -2.5405   -1.1993 CT        1 <0>       -0.06964
      6 C6          2.3790   -0.2391   -1.1062 CT        1 <0>       -0.06964
      7 C7          2.4808   -1.7201   -1.4975 CT        1 <0>       -0.06367
      8 C8          3.6813   -2.3476   -0.7781 CT        1 <0>       -0.09180
      9 H1         -1.5639   -1.4209   -0.9613 HC        1 <0>        0.03499
     10 H2         -1.4167   -0.7224   -2.5567 HC        1 <0>        0.03499
     11 H3         -0.8126    1.0157   -1.1668 HC        1 <0>        0.03499
     12 H4          0.0008   -0.0010   -0.0002 HC        1 <0>        0.03499
     13 H5         -0.5861   -3.0963   -2.2255 HC        1 <0>        0.03692
     14 H6          0.4329   -2.0165   -3.1466 HC        1 <0>        0.03692
     15 H7          1.1744    0.4016   -2.8041 HC        1 <0>        0.03692
     16 H8          1.3800    1.5922   -1.5294 HC        1 <0>        0.03692
     17 H9          0.9149   -2.4351   -0.1497 HC        1 <0>        0.03804
     18 H10         1.4550   -3.6019   -1.3458 HC        1 <0>        0.03804
     19 H11         3.3032    0.2621   -1.4235 HC        1 <0>        0.03804
     20 H12         2.3460   -0.1437   -0.0130 HC        1 <0>        0.03804
     21 H13         2.6860   -1.7750   -2.5750 HC        1 <0>        0.04429
     22 H14         3.5188   -2.3137    0.2957 HC        1 <0>        0.03294
     23 H15         4.5825   -1.7931   -1.0253 HC        1 <0>        0.03294
     24 H16         3.7940   -3.3810   -1.0946 HC        1 <0>        0.03294
@<TRIPOS>BOND
     1    1    2 1
     2    1    3 1
     3    2    4 1
     4    3    5 1
     5    4    6 1
     6    5    7 1
     7    6    7 1
     8    7    8 1
     9    1    9 1
    10    1   10 1
    11    2   11 1
    12    2   12 1
    13    3   13 1
    14    3   14 1
    15    4   15 1
    16    4   16 1
    17    5   17 1
    18    5   18 1
    19    6   19 1
    20    6   20 1
    21    7   21 1
    22    8   22 1
    23    8   23 1
    24    8   24 1
@<TRIPOS>SUBSTRUCTURE
     1 <0>         1 GROUP 0 A     ****
