@<TRIPOS>MOLECULE
AlkEthOH_r407
   31    31     1     0     0
SMALL
USER_CHARGES

@<TRIPOS>ATOM
      1 C1          1.1032    0.5633    1.8074 CT        1 <0>       -0.07163
      2 C2          1.2198   -0.8862    1.3361 CT        1 <0>       -0.06735
      3 C3         -0.2714    0.9902    2.3339 CT        1 <0>       -0.09562
      4 C4          0.3036   -1.3939    0.2168 CT        1 <0>       -0.07603
      5 C5         -0.0232    0.6713   -1.3808 CT        1 <0>       -0.10263
      6 C6         -1.1405    1.6955    1.2964 CT        1 <0>        0.13038
      7 C7         -1.4605    0.9957   -0.9647 CT        1 <0>        0.13555
      8 C8          0.4465   -0.8017   -1.2145 CT        1 <0>       -0.03770
      9 C9          1.9186   -0.8806   -1.6739 CT        1 <0>       -0.08992
     10 C10        -0.3821   -1.6978   -2.1668 CT        1 <0>       -0.08992
     11 O1         -1.7138    0.7444    0.4100 OS        1 <0>       -0.42337
     12 H1          1.8087    0.6637    2.6444 HC        1 <0>        0.03475
     13 H2          1.4754    1.2578    1.0504 HC        1 <0>        0.03475
     14 H3          2.2642   -1.0727    1.0581 HC        1 <0>        0.03459
     15 H4          1.0423   -1.5285    2.2100 HC        1 <0>        0.03459
     16 H5         -0.7991    0.1274    2.7564 HC        1 <0>        0.04911
     17 H6         -0.1049    1.7006    3.1535 HC        1 <0>        0.04911
     18 H7          0.5177   -2.4711    0.1394 HC        1 <0>        0.05076
     19 H8         -0.7381   -1.3638    0.5502 HC        1 <0>        0.05076
     20 H9          0.0758    0.9501   -2.4393 HC        1 <0>        0.04331
     21 H10         0.6636    1.3358   -0.8515 HC        1 <0>        0.04331
     22 H11        -1.9749    2.1848    1.8111 H1        1 <0>        0.03651
     23 H12        -0.5798    2.4806    0.7759 H1        1 <0>        0.03651
     24 H13        -1.6974    2.0412   -1.1969 H1        1 <0>        0.04417
     25 H14        -2.1637    0.3874   -1.5417 H1        1 <0>        0.04417
     26 H15         1.9993   -0.4646   -2.6707 HC        1 <0>        0.03364
     27 H16         2.2306   -1.9178   -1.6797 HC        1 <0>        0.03364
     28 H17         2.5332   -0.3133   -0.9856 HC        1 <0>        0.03364
     29 H18        -0.2999   -1.3071   -3.1723 HC        1 <0>        0.03364
     30 H19        -1.4152   -1.6856   -1.8456 HC        1 <0>        0.03364
     31 H20         0.0093   -2.7056   -2.1253 HC        1 <0>        0.03364
@<TRIPOS>BOND
     1    1    2 1
     2    1    3 1
     3    2    4 1
     4    3    6 1
     5    4    8 1
     6    5    7 1
     7    5    8 1
     8    6   11 1
     9    7   11 1
    10    8    9 1
    11    8   10 1
    12    1   12 1
    13    1   13 1
    14    2   14 1
    15    2   15 1
    16    3   16 1
    17    3   17 1
    18    4   18 1
    19    4   19 1
    20    5   20 1
    21    5   21 1
    22    6   22 1
    23    6   23 1
    24    7   24 1
    25    7   25 1
    26    9   26 1
    27    9   27 1
    28    9   28 1
    29   10   29 1
    30   10   30 1
    31   10   31 1
@<TRIPOS>SUBSTRUCTURE
     1 <0>         1 GROUP 0 A     ****
