@<TRIPOS>MOLECULE
AlkEthOH_r440
   30    30     1     0     0
SMALL
USER_CHARGES

@<TRIPOS>ATOM
      1 C1          0.6172    1.7424   -0.9803 CT        1 <0>       -0.07610
      2 C2          1.9742    1.1584   -1.3995 CT        1 <0>       -0.08473
      3 C3          0.2980    1.6012    0.5179 CT        1 <0>       -0.09913
      4 C4          2.1258   -0.3429   -1.1556 CT        1 <0>        0.12438
      5 C5          0.4490   -2.0106   -0.7575 CT        1 <0>        0.09942
      6 C6         -0.1391   -1.4107    0.5215 CT        1 <0>        0.30052
      7 C7         -1.0217    0.8452    0.8313 CT        1 <0>        0.15543
      8 C8         -2.2272    1.6532    0.3189 CT        1 <0>       -0.10169
      9 C9         -1.1909    0.6664    2.3493 CT        1 <0>       -0.10169
     10 O1          0.9704   -1.0192   -1.6382 OS        1 <0>       -0.39750
     11 O2         -1.0903   -0.4162    0.1472 OS        1 <0>       -0.38788
     12 O3         -0.7654   -2.4672    1.2449 OH        1 <0>       -0.60386
     13 H1          0.6240    2.8114   -1.2298 HC        1 <0>        0.05665
     14 H2         -0.1669    1.2999   -1.6040 HC        1 <0>        0.05665
     15 H3          2.0881    1.3454   -2.4749 HC        1 <0>        0.04451
     16 H4          2.7888    1.6940   -0.8986 HC        1 <0>        0.04451
     17 H5          1.1373    1.1213    1.0328 HC        1 <0>        0.03993
     18 H6          0.2360    2.6075    0.9545 HC        1 <0>        0.03993
     19 H7          2.9922   -0.7178   -1.7113 H1        1 <0>        0.03132
     20 H8          2.3220   -0.5416   -0.0979 H1        1 <0>        0.03132
     21 H9          1.2185   -2.7579   -0.5294 H1        1 <0>        0.05911
     22 H10        -0.3401   -2.5352   -1.3090 H1        1 <0>        0.05911
     23 H11         0.6618   -1.0075    1.1452 H2        1 <0>        0.03191
     24 H12        -3.1408    1.1136    0.5445 HC        1 <0>        0.04597
     25 H13        -2.1371    1.7877   -0.7537 HC        1 <0>        0.04597
     26 H14        -2.2430    2.6208    0.8092 HC        1 <0>        0.04597
     27 H15        -2.1174    0.1369    2.5470 HC        1 <0>        0.04597
     28 H16        -1.2198    1.6417    2.8242 HC        1 <0>        0.04597
     29 H17        -0.3541    0.0954    2.7386 HC        1 <0>        0.04597
     30 H18        -0.0729   -3.1179    1.4384 HO        1 <0>        0.40206
@<TRIPOS>BOND
     1    1    2 1
     2    1    3 1
     3    2    4 1
     4    3    7 1
     5    4   10 1
     6    5    6 1
     7    5   10 1
     8    6   11 1
     9    6   12 1
    10    7    8 1
    11    7    9 1
    12    7   11 1
    13    1   13 1
    14    1   14 1
    15    2   15 1
    16    2   16 1
    17    3   17 1
    18    3   18 1
    19    4   19 1
    20    4   20 1
    21    5   21 1
    22    5   22 1
    23    6   23 1
    24    8   24 1
    25    8   25 1
    26    8   26 1
    27    9   27 1
    28    9   28 1
    29    9   29 1
    30   12   30 1
@<TRIPOS>SUBSTRUCTURE
     1 <0>         1 GROUP 0 A     ****
