@<TRIPOS>MOLECULE
AlkEthOH_c1089
   21    20     1     0     0
SMALL
USER_CHARGES

@<TRIPOS>ATOM
      1 C1         -0.4474    0.8277   -0.8199 CT        1 <0>       -0.09162
      2 C2         -0.6714   -2.8371   -4.2817 CT        1 <0>       -0.12209
      3 C3          0.3112   -0.6336   -6.0860 CT        1 <0>        0.11763
      4 C4          0.0366    0.3647   -2.1852 CT        1 <0>       -0.07978
      5 C5         -0.5207   -1.0174   -2.5371 CT        1 <0>       -0.07383
      6 C6         -0.0767   -1.4806   -3.9284 CT        1 <0>        0.13749
      7 O1         -0.4824   -0.5335   -4.9130 OS        1 <0>       -0.42226
      8 H1         -0.1532    0.1080   -0.0495 HC        1 <0>        0.03176
      9 H2         -1.5380    0.9192   -0.8004 HC        1 <0>        0.03176
     10 H3         -0.0159    1.7995   -0.5597 HC        1 <0>        0.03176
     11 H4         -1.7663   -2.8070   -4.2517 HC        1 <0>        0.04156
     12 H5         -0.3926   -3.1214   -5.3021 HC        1 <0>        0.04156
     13 H6         -0.3234   -3.6149   -3.5951 HC        1 <0>        0.04156
     14 H7         -0.0252    0.1042   -6.8185 H1        1 <0>        0.03098
     15 H8          0.2239   -1.6409   -6.5011 H1        1 <0>        0.03098
     16 H9          1.3543   -0.4374   -5.8272 H1        1 <0>        0.03098
     17 H10        -0.2689    1.0993   -2.9388 HC        1 <0>        0.04576
     18 H11         1.1324    0.3343   -2.1862 HC        1 <0>        0.04576
     19 H12        -0.1919   -1.7458   -1.7860 HC        1 <0>        0.04738
     20 H13        -1.6164   -0.9734   -2.4955 HC        1 <0>        0.04738
     21 H14         1.0160   -1.5470   -3.9681 H1        1 <0>        0.03528
@<TRIPOS>BOND
     1    1    4 1
     2    2    6 1
     3    3    7 1
     4    4    5 1
     5    5    6 1
     6    6    7 1
     7    1    8 1
     8    1    9 1
     9    1   10 1
    10    2   11 1
    11    2   12 1
    12    2   13 1
    13    3   14 1
    14    3   15 1
    15    3   16 1
    16    4   17 1
    17    4   18 1
    18    5   19 1
    19    5   20 1
    20    6   21 1
@<TRIPOS>SUBSTRUCTURE
     1 <0>         1 GROUP 0 A     ****
