@<TRIPOS>MOLECULE
AlkEthOH_r843
   19    19     1     0     0
SMALL
USER_CHARGES

@<TRIPOS>ATOM
      1 C1         -0.2383   -1.0632   -0.0923 CT        1 <0>       -0.10843
      2 C2          0.8283   -1.8566   -0.8062 CT        1 <0>       -0.10840
      3 C3         -1.4493   -1.3219   -0.9731 CT        1 <0>        0.13521
      4 C4          0.0516   -3.0896   -1.2371 CT        1 <0>        0.13521
      5 C5         -2.7688   -1.2125   -0.2337 CT        1 <0>       -0.09793
      6 C6          0.6215   -3.7623   -2.4710 CT        1 <0>       -0.09793
      7 O1         -1.2934   -2.6519   -1.4978 OS        1 <0>       -0.42861
      8 H1         -0.3884   -1.4694    0.9153 HC        1 <0>        0.05485
      9 H2          0.0002    0.0002   -0.0005 HC        1 <0>        0.05485
     10 H3          1.1878   -1.2926   -1.6755 HC        1 <0>        0.05485
     11 H4          1.6880   -2.0957   -0.1741 HC        1 <0>        0.05485
     12 H5         -1.4474   -0.6361   -1.8287 H1        1 <0>        0.04485
     13 H6          0.0011   -3.8112   -0.4131 H1        1 <0>        0.04485
     14 H7         -2.7824   -1.8919    0.6218 HC        1 <0>        0.04363
     15 H8         -3.5981   -1.4707   -0.8963 HC        1 <0>        0.04363
     16 H9         -2.9176   -0.1928    0.1292 HC        1 <0>        0.04363
     17 H10         0.6766   -3.0523   -3.2995 HC        1 <0>        0.04363
     18 H11        -0.0106   -4.6007   -2.7727 HC        1 <0>        0.04363
     19 H12         1.6266   -4.1393   -2.2681 HC        1 <0>        0.04363
@<TRIPOS>BOND
     1    1    2 1
     2    1    3 1
     3    2    4 1
     4    3    5 1
     5    3    7 1
     6    4    6 1
     7    4    7 1
     8    1    8 1
     9    1    9 1
    10    2   10 1
    11    2   11 1
    12    3   12 1
    13    4   13 1
    14    5   14 1
    15    5   15 1
    16    5   16 1
    17    6   17 1
    18    6   18 1
    19    6   19 1
@<TRIPOS>SUBSTRUCTURE
     1 <0>         1 GROUP 0 A     ****
