@<TRIPOS>MOLECULE
AlkEthOH_r738
   23    23     1     0     0
SMALL
USER_CHARGES

@<TRIPOS>ATOM
      1 C1         -0.5554   -1.7667    0.0107 CT        1 <0>       -0.13623
      2 C2          0.4427   -1.8180   -1.1526 CT        1 <0>        0.14632
      3 C3          0.1426    0.4298   -1.9320 CT        1 <0>        0.33811
      4 C4         -0.0707   -0.9787    1.2360 CT        1 <0>        0.38072
      5 C5         -0.3598    1.2643    0.2668 CT        1 <0>        0.55560
      6 C6         -1.5864    1.5955    1.1265 CT        1 <0>       -0.10989
      7 O1          1.0482   -0.5659   -1.4603 OS        1 <0>       -0.43078
      8 O2         -0.8664    0.8285   -1.0040 OS        1 <0>       -0.47874
      9 O3          0.4705    0.3059    0.9382 OS        1 <0>       -0.51824
     10 O4          0.9401   -1.7703    1.8671 OH        1 <0>       -0.59919
     11 O5          0.3946    2.4757    0.1036 OH        1 <0>       -0.61230
     12 H1         -1.5025   -1.3392   -0.3449 HC        1 <0>        0.06698
     13 H2         -0.8222   -2.7867    0.3130 HC        1 <0>        0.06698
     14 H3          1.2195   -2.5671   -0.9591 H1        1 <0>        0.05312
     15 H4         -0.0886   -2.1375   -2.0560 H1        1 <0>        0.05312
     16 H5          0.7080    1.3232   -2.2166 H2        1 <0>        0.07386
     17 H6         -0.3308    0.0550   -2.8436 H2        1 <0>        0.07386
     18 H7         -0.8700   -0.8492    1.9211 H2        1 <0>        0.02767
     19 H8         -1.2638    1.9338    2.1084 HC        1 <0>        0.06140
     20 H9         -2.2051    0.7081    1.2373 HC        1 <0>        0.06140
     21 H10        -2.1665    2.3811    0.6479 HC        1 <0>        0.06140
     22 H11         1.2419   -1.2678    2.6395 HO        1 <0>        0.42571
     23 H12         0.6436    2.7608    0.9945 HO        1 <0>        0.43912
@<TRIPOS>BOND
     1    1    2 1
     2    1    4 1
     3    2    7 1
     4    3    7 1
     5    3    8 1
     6    4    9 1
     7    4   10 1
     8    5    6 1
     9    5    8 1
    10    5    9 1
    11    5   11 1
    12    1   12 1
    13    1   13 1
    14    2   14 1
    15    2   15 1
    16    3   16 1
    17    3   17 1
    18    4   18 1
    19    6   19 1
    20    6   20 1
    21    6   21 1
    22   10   22 1
    23   11   23 1
@<TRIPOS>SUBSTRUCTURE
     1 <0>         1 GROUP 0 A     ****
