@<TRIPOS>MOLECULE
AlkEthOH_c792
   26    25     1     0     0
SMALL
USER_CHARGES

@<TRIPOS>ATOM
      1 C1          3.4439   -5.3227    4.0373 CT        1 <0>       -0.13266
      2 C2         -0.5521    0.0942    1.0158 CT        1 <0>       -0.12468
      3 C3          1.6683    0.5960    2.0745 CT        1 <0>       -0.12468
      4 C4          2.0530   -3.5288    2.9521 CT        1 <0>        0.13507
      5 C5          0.7921   -1.7855    2.0067 CT        1 <0>        0.14193
      6 C6          2.9900   -3.8723    4.1031 CT        1 <0>        0.13841
      7 C7          0.4298   -0.2995    2.1208 CT        1 <0>        0.15218
      8 O1          4.1354   -3.0261    4.0164 OH        1 <0>       -0.58674
      9 O2         -0.2074   -0.0771    3.3815 OH        1 <0>       -0.58475
     10 O3          1.6860   -2.1600    3.0490 OS        1 <0>       -0.39288
     11 H1          3.9320   -5.5288    3.0786 HC        1 <0>        0.04404
     12 H2          4.1479   -5.5559    4.8420 HC        1 <0>        0.04404
     13 H3          2.5896   -6.0049    4.1079 HC        1 <0>        0.04404
     14 H4         -1.4437   -0.5426    1.0409 HC        1 <0>        0.04600
     15 H5         -0.8677    1.1383    1.1102 HC        1 <0>        0.04600
     16 H6         -0.1024   -0.0433    0.0258 HC        1 <0>        0.04600
     17 H7          2.3840    0.3285    2.8598 HC        1 <0>        0.04600
     18 H8          1.3973    1.6428    2.2552 HC        1 <0>        0.04600
     19 H9          2.1737    0.5330    1.1054 HC        1 <0>        0.04600
     20 H10         2.5428   -3.6776    1.9842 H1        1 <0>        0.03276
     21 H11         1.1390   -4.1293    2.9954 H1        1 <0>        0.03276
     22 H12        -0.1019   -2.4117    2.1000 H1        1 <0>        0.03190
     23 H13         1.2768   -1.9987    1.0480 H1        1 <0>        0.03190
     24 H14         2.5018   -3.6662    5.0620 H1        1 <0>        0.04879
     25 H15         4.7011   -3.2514    4.7706 HO        1 <0>        0.39617
     26 H16        -0.4226    0.8666    3.4141 HO        1 <0>        0.39640
@<TRIPOS>BOND
     1    1    6 1
     2    2    7 1
     3    3    7 1
     4    4    6 1
     5    4   10 1
     6    5    7 1
     7    5   10 1
     8    6    8 1
     9    7    9 1
    10    1   11 1
    11    1   12 1
    12    1   13 1
    13    2   14 1
    14    2   15 1
    15    2   16 1
    16    3   17 1
    17    3   18 1
    18    3   19 1
    19    4   20 1
    20    4   21 1
    21    5   22 1
    22    5   23 1
    23    6   24 1
    24    8   25 1
    25    9   26 1
@<TRIPOS>SUBSTRUCTURE
     1 <0>         1 GROUP 0 A     ****
