@<TRIPOS>MOLECULE
AlkEthOH_r1155
   22    22     1     0     0
SMALL
USER_CHARGES

@<TRIPOS>ATOM
      1 C1          0.9750    0.5248   -1.3889 CT        1 <0>       -0.17602
      2 C2          2.0638   -0.0687   -0.4921 CT        1 <0>        0.14909
      3 C3          1.0096    0.3317    1.6254 CT        1 <0>        0.33006
      4 C4         -0.2868   -0.3414   -1.5179 CT        1 <0>        0.35490
      5 C5         -1.2045    0.1778    0.6652 CT        1 <0>        0.34497
      6 C6         -1.9039   -0.5183    1.8267 CT        1 <0>       -0.11591
      7 O1          1.5805   -0.6201    0.7298 OS        1 <0>       -0.42989
      8 O2         -0.1456    1.0141    1.1410 OS        1 <0>       -0.48518
      9 O3         -0.8171   -0.8222   -0.2811 OS        1 <0>       -0.42107
     10 O4         -1.2711    0.3224   -2.3082 OH        1 <0>       -0.62924
     11 H1          0.6972    1.5191   -1.0193 HC        1 <0>        0.06347
     12 H2          1.3881    0.7180   -2.3873 HC        1 <0>        0.06347
     13 H3          2.5527   -0.8886   -1.0295 H1        1 <0>        0.04608
     14 H4          2.8368    0.6787   -0.2796 H1        1 <0>        0.04608
     15 H5          0.7617   -0.1852    2.5578 H2        1 <0>        0.06135
     16 H6          1.7651    1.0851    1.8742 H2        1 <0>        0.06135
     17 H7          0.0036   -1.2555   -2.0792 H2        1 <0>        0.07025
     18 H8         -1.9360    0.8413    0.1901 H2        1 <0>        0.09127
     19 H9         -1.2097   -1.1910    2.3300 HC        1 <0>        0.05452
     20 H10        -2.7520   -1.0952    1.4585 HC        1 <0>        0.05452
     21 H11        -2.2623    0.2213    2.5425 HC        1 <0>        0.05452
     22 H12        -0.8714    0.4701   -3.1790 HO        1 <0>        0.41141
@<TRIPOS>BOND
     1    1    2 1
     2    1    4 1
     3    2    7 1
     4    3    7 1
     5    3    8 1
     6    4    9 1
     7    4   10 1
     8    5    6 1
     9    5    8 1
    10    5    9 1
    11    1   11 1
    12    1   12 1
    13    2   13 1
    14    2   14 1
    15    3   15 1
    16    3   16 1
    17    4   17 1
    18    5   18 1
    19    6   19 1
    20    6   20 1
    21    6   21 1
    22   10   22 1
@<TRIPOS>SUBSTRUCTURE
     1 <0>         1 GROUP 0 A     ****
