@<TRIPOS>MOLECULE
AlkEthOH_c252
   20    19     1     0     0
SMALL
USER_CHARGES

@<TRIPOS>ATOM
      1 C1         -1.3870   -0.0280   -0.0281 CT        1 <0>       -0.13109
      2 C2          0.2117    1.6684    0.8662 CT        1 <0>       -0.13109
      3 C3          2.2652   -1.3013   -2.1691 CT        1 <0>        0.12900
      4 C4          0.9791   -1.1574   -1.3784 CT        1 <0>        0.12830
      5 C5          0.0686    0.2298    0.3677 CT        1 <0>        0.34424
      6 O1          2.3163   -0.2836   -3.1615 OH        1 <0>       -0.59969
      7 O2          0.4413   -0.6121    1.4590 OH        1 <0>       -0.62481
      8 O3          0.9647    0.1133   -0.7445 OS        1 <0>       -0.41050
      9 H1         -1.5212   -1.0532   -0.3903 HC        1 <0>        0.05209
     10 H2         -2.0651    0.1483    0.8132 HC        1 <0>        0.05209
     11 H3         -1.6987    0.6296   -0.8467 HC        1 <0>        0.05209
     12 H4          1.2499    1.8720    1.1549 HC        1 <0>        0.05209
     13 H5         -0.4094    1.8503    1.7500 HC        1 <0>        0.05209
     14 H6         -0.0536    2.3899    0.0860 HC        1 <0>        0.05209
     15 H7          2.3119   -2.2715   -2.6732 H1        1 <0>        0.03742
     16 H8          3.1329   -1.1843   -1.5133 H1        1 <0>        0.03742
     17 H9          0.9045   -1.9261   -0.6029 H1        1 <0>        0.04897
     18 H10         0.1123   -1.2187   -2.0428 H1        1 <0>        0.04897
     19 H11         3.1488   -0.4069   -3.6450 HO        1 <0>        0.40104
     20 H12        -0.1424   -0.4132    2.2102 HO        1 <0>        0.40928
@<TRIPOS>BOND
     1    1    5 1
     2    2    5 1
     3    3    4 1
     4    3    6 1
     5    4    8 1
     6    5    7 1
     7    5    8 1
     8    1    9 1
     9    1   10 1
    10    1   11 1
    11    2   12 1
    12    2   13 1
    13    2   14 1
    14    3   15 1
    15    3   16 1
    16    4   17 1
    17    4   18 1
    18    6   19 1
    19    7   20 1
@<TRIPOS>SUBSTRUCTURE
     1 <0>         1 GROUP 0 A     ****
