@<TRIPOS>MOLECULE
AlkEthOH_r976
   26    26     1     0     0
SMALL
USER_CHARGES

@<TRIPOS>ATOM
      1 C1          0.6912   -1.5234   -1.1738 CT        1 <0>       -0.10874
      2 C2         -0.5101   -1.8476   -0.2814 CT        1 <0>       -0.08280
      3 C3          0.4722   -0.3970   -2.1847 CT        1 <0>        0.13261
      4 C4          0.9049    1.3967   -0.6482 CT        1 <0>        0.09927
      5 C5         -1.0372   -0.6820    0.5647 CT        1 <0>        0.13900
      6 C6          0.2335    1.3512    0.7292 CT        1 <0>        0.12151
      7 C7         -1.9489   -1.1940    1.6758 CT        1 <0>       -0.10477
      8 C8          1.1064    2.0532    1.7633 CT        1 <0>       -0.09466
      9 O1          0.0342    0.8385   -1.6290 OS        1 <0>       -0.42470
     10 O2          0.0537    0.0045    1.1841 OS        1 <0>       -0.42124
     11 H1          1.5510   -1.2928   -0.5345 HC        1 <0>        0.05140
     12 H2          0.9672   -2.4305   -1.7258 HC        1 <0>        0.05140
     13 H3         -1.3278   -2.2488   -0.8928 HC        1 <0>        0.04338
     14 H4         -0.1954   -2.6610    0.3859 HC        1 <0>        0.04338
     15 H5          1.3929   -0.2202   -2.7530 H1        1 <0>        0.04389
     16 H6         -0.2912   -0.7068   -2.9068 H1        1 <0>        0.04389
     17 H7          1.0736    2.4407   -0.9344 H1        1 <0>        0.04940
     18 H8          1.8814    0.8994   -0.6436 H1        1 <0>        0.04940
     19 H9         -1.6345   -0.0096   -0.0624 H1        1 <0>        0.06103
     20 H10        -0.7425    1.8513    0.6972 H1        1 <0>        0.04845
     21 H11        -1.3958   -1.8693    2.3274 HC        1 <0>        0.04105
     22 H12        -2.7941   -1.7289    1.2447 HC        1 <0>        0.04105
     23 H13        -2.3210   -0.3568    2.2651 HC        1 <0>        0.04105
     24 H14         2.0833    1.5728    1.8130 HC        1 <0>        0.04525
     25 H15         0.6354    2.0009    2.7445 HC        1 <0>        0.04525
     26 H16         1.2394    3.0994    1.4890 HC        1 <0>        0.04525
@<TRIPOS>BOND
     1    1    2 1
     2    1    3 1
     3    2    5 1
     4    3    9 1
     5    4    6 1
     6    4    9 1
     7    5    7 1
     8    5   10 1
     9    6    8 1
    10    6   10 1
    11    1   11 1
    12    1   12 1
    13    2   13 1
    14    2   14 1
    15    3   15 1
    16    3   16 1
    17    4   17 1
    18    4   18 1
    19    5   19 1
    20    6   20 1
    21    7   21 1
    22    7   22 1
    23    7   23 1
    24    8   24 1
    25    8   25 1
    26    8   26 1
@<TRIPOS>SUBSTRUCTURE
     1 <0>         1 GROUP 0 A     ****
