@<TRIPOS>MOLECULE
AlkEthOH_c423
   27    26     1     0     0
SMALL
USER_CHARGES

@<TRIPOS>ATOM
      1 C1          1.7883   -1.5186   -3.4395 CT        1 <0>       -0.09108
      2 C2          0.0419   -1.7876   -1.6679 CT        1 <0>       -0.09108
      3 C3         -0.1387    1.1701   -4.9594 CT        1 <0>       -0.08940
      4 C4          1.5461    5.0208   -4.3569 CT        1 <0>        0.11727
      5 C5          0.5523    0.5172   -2.6391 CT        1 <0>       -0.06962
      6 C6          1.0030    2.8920   -3.5225 CT        1 <0>        0.12920
      7 C7          0.4484   -0.9968   -2.9118 CT        1 <0>       -0.06682
      8 C8          0.9046    1.3981   -3.8578 CT        1 <0>       -0.06575
      9 O1          1.4019    3.6401   -4.6624 OS        1 <0>       -0.42391
     10 H1          2.5823   -1.3705   -2.6999 HC        1 <0>        0.03346
     11 H2          1.7308   -2.5908   -3.6550 HC        1 <0>        0.03346
     12 H3          2.0822   -1.0025   -4.3599 HC        1 <0>        0.03346
     13 H4          0.7606   -1.6439   -0.8540 HC        1 <0>        0.03346
     14 H5         -0.9463   -1.4854   -1.3088 HC        1 <0>        0.03346
     15 H6         -0.0082   -2.8596   -1.8882 HC        1 <0>        0.03346
     16 H7         -1.1346    1.4718   -4.6176 HC        1 <0>        0.03822
     17 H8          0.0959    1.7432   -5.8627 HC        1 <0>        0.03822
     18 H9         -0.1890    0.1109   -5.2331 HC        1 <0>        0.03822
     19 H10         1.8528    5.5632   -5.2545 H1        1 <0>        0.03167
     20 H11         2.2943    5.1445   -3.5699 H1        1 <0>        0.03167
     21 H12         0.5863    5.4100   -4.0088 H1        1 <0>        0.03167
     22 H13         1.2991    0.6804   -1.8505 HC        1 <0>        0.03860
     23 H14        -0.4034    0.8659   -2.2243 HC        1 <0>        0.03860
     24 H15         0.0419    3.2799   -3.1712 H1        1 <0>        0.02543
     25 H16         1.7386    3.0574   -2.7278 H1        1 <0>        0.02543
     26 H17        -0.2993   -1.1734   -3.6937 HC        1 <0>        0.04937
     27 H18         1.8724    1.0781   -4.2621 HC        1 <0>        0.06333
@<TRIPOS>BOND
     1    1    7 1
     2    2    7 1
     3    3    8 1
     4    4    9 1
     5    5    7 1
     6    5    8 1
     7    6    8 1
     8    6    9 1
     9    1   10 1
    10    1   11 1
    11    1   12 1
    12    2   13 1
    13    2   14 1
    14    2   15 1
    15    3   16 1
    16    3   17 1
    17    3   18 1
    18    4   19 1
    19    4   20 1
    20    4   21 1
    21    5   22 1
    22    5   23 1
    23    6   24 1
    24    6   25 1
    25    7   26 1
    26    8   27 1
@<TRIPOS>SUBSTRUCTURE
     1 <0>         1 GROUP 0 A     ****
