@<TRIPOS>MOLECULE
AlkEthOH_r186
   27    27     1     0     0
SMALL
USER_CHARGES

@<TRIPOS>ATOM
      1 C1          2.2183    0.1372    1.0473 CT        1 <0>       -0.07231
      2 C2          1.3181    1.3699    0.9265 CT        1 <0>       -0.07496
      3 C3          2.4695   -0.5929   -0.2767 CT        1 <0>       -0.10037
      4 C4         -0.1258    1.1583    1.3854 CT        1 <0>       -0.10279
      5 C5          1.2283   -1.2017   -0.9173 CT        1 <0>        0.13514
      6 C6         -0.8795   -0.0609    0.8369 CT        1 <0>        0.13591
      7 C7         -0.9561   -0.1854   -0.7031 CT        1 <0>        0.35259
      8 C8         -1.7460    0.9689   -1.3322 CT        1 <0>       -0.10615
      9 O1          0.3354   -0.1694   -1.3184 OS        1 <0>       -0.45242
     10 O2         -2.2169   -0.0171    1.3550 OH        1 <0>       -0.59069
     11 O3         -1.6454   -1.4070   -1.0034 OH        1 <0>       -0.61614
     12 H1          3.1972    0.4723    1.4142 HC        1 <0>        0.03736
     13 H2          1.8370   -0.5599    1.8019 HC        1 <0>        0.03736
     14 H3          1.7389    2.1595    1.5634 HC        1 <0>        0.04933
     15 H4          1.3423    1.7795   -0.0893 HC        1 <0>        0.04933
     16 H5          2.9282    0.1127   -0.9806 HC        1 <0>        0.04786
     17 H6          3.2003   -1.3910   -0.1000 HC        1 <0>        0.04786
     18 H7         -0.1314    1.0849    2.4822 HC        1 <0>        0.04501
     19 H8         -0.6986    2.0710    1.1757 HC        1 <0>        0.04501
     20 H9          1.5287   -1.7318   -1.8278 H1        1 <0>        0.04890
     21 H10         0.7649   -1.9439   -0.2593 H1        1 <0>        0.04890
     22 H11        -0.4377   -0.9687    1.2606 H1        1 <0>        0.04930
     23 H12        -1.7753    0.8431   -2.4112 HC        1 <0>        0.05774
     24 H13        -1.2636    1.9125   -1.0914 HC        1 <0>        0.05774
     25 H14        -2.7598    0.9708   -0.9407 HC        1 <0>        0.05774
     26 H15        -2.1315   -0.0482    2.3179 HO        1 <0>        0.40097
     27 H16        -1.6812   -1.4633   -1.9683 HO        1 <0>        0.41178
@<TRIPOS>BOND
     1    1    2 1
     2    1    3 1
     3    2    4 1
     4    3    5 1
     5    4    6 1
     6    5    9 1
     7    6    7 1
     8    6   10 1
     9    7    8 1
    10    7    9 1
    11    7   11 1
    12    1   12 1
    13    1   13 1
    14    2   14 1
    15    2   15 1
    16    3   16 1
    17    3   17 1
    18    4   18 1
    19    4   19 1
    20    5   20 1
    21    5   21 1
    22    6   22 1
    23    8   23 1
    24    8   24 1
    25    8   25 1
    26   10   26 1
    27   11   27 1
@<TRIPOS>SUBSTRUCTURE
     1 <0>         1 GROUP 0 A     ****
