@<TRIPOS>MOLECULE
AlkEthOH_r809
   17    17     1     0     0
SMALL
USER_CHARGES

@<TRIPOS>ATOM
      1 C1          0.8822    0.7831    0.1334 CT        1 <0>       -0.11469
      2 C2          1.0820   -0.7287   -0.0105 CT        1 <0>        0.12892
      3 C3         -0.6117    0.4435    0.2589 CT        1 <0>        0.32007
      4 C4          1.7801   -1.4410    1.1296 CT        1 <0>       -0.10565
      5 C5         -1.2103    0.6460    1.6415 CT        1 <0>       -0.12054
      6 O1         -0.3475   -0.9635    0.0240 OS        1 <0>       -0.45468
      7 O2         -1.4606    1.0412   -0.7399 OH        1 <0>       -0.58498
      8 H1          1.3471    1.2259    1.0188 HC        1 <0>        0.07210
      9 H2          1.1457    1.3777   -0.7465 HC        1 <0>        0.07210
     10 H3          1.4924   -1.0232   -0.9839 H1        1 <0>        0.07052
     11 H4          1.3559   -1.1331    2.0888 HC        1 <0>        0.04599
     12 H5          2.8473   -1.2048    1.1308 HC        1 <0>        0.04599
     13 H6          1.6646   -2.5235    1.0310 HC        1 <0>        0.04599
     14 H7         -2.2689    0.3813    1.6356 HC        1 <0>        0.05297
     15 H8         -1.1112    1.6894    1.9453 HC        1 <0>        0.05297
     16 H9         -0.6954    0.0177    2.3701 HC        1 <0>        0.05297
     17 H10        -2.3552    0.7418   -0.5348 HO        1 <0>        0.41995
@<TRIPOS>BOND
     1    1    2 1
     2    1    3 1
     3    2    4 1
     4    2    6 1
     5    3    5 1
     6    3    6 1
     7    3    7 1
     8    1    8 1
     9    1    9 1
    10    2   10 1
    11    4   11 1
    12    4   12 1
    13    4   13 1
    14    5   14 1
    15    5   15 1
    16    5   16 1
    17    7   17 1
@<TRIPOS>SUBSTRUCTURE
     1 <0>         1 GROUP 0 A     ****
