@<TRIPOS>MOLECULE
AlkEthOH_r43
   26    26     1     0     0
SMALL
USER_CHARGES

@<TRIPOS>ATOM
      1 C1          1.9964   -0.5920    0.4681 CT        1 <0>       -0.07287
      2 C2          1.4856    0.5710    1.3210 CT        1 <0>       -0.06659
      3 C3          2.0336   -0.3599   -1.0462 CT        1 <0>       -0.09778
      4 C4          0.1307    1.1988    0.9989 CT        1 <0>       -0.12056
      5 C5         -1.3573   -0.8797    0.3838 CT        1 <0>       -0.10581
      6 C6          0.8127   -0.9040   -1.7864 CT        1 <0>        0.12868
      7 C7         -1.4615   -0.5905   -1.1153 CT        1 <0>        0.13563
      8 C8         -1.1134    0.3460    1.2747 CT        1 <0>        0.15504
      9 O1         -0.2827   -0.0084   -1.6548 OS        1 <0>       -0.42405
     10 O2         -2.2440    1.2187    1.1563 OH        1 <0>       -0.60888
     11 H1          3.0317   -0.7706    0.7915 HC        1 <0>        0.03603
     12 H2          1.4709   -1.5187    0.7127 HC        1 <0>        0.03603
     13 H3          1.4837    0.2497    2.3705 HC        1 <0>        0.03639
     14 H4          2.2344    1.3727    1.2618 HC        1 <0>        0.03639
     15 H5          2.1775    0.7044   -1.2644 HC        1 <0>        0.05023
     16 H6          2.9102   -0.8916   -1.4375 HC        1 <0>        0.05023
     17 H7          0.0448    2.0934    1.6341 HC        1 <0>        0.05907
     18 H8          0.1192    1.6154   -0.0125 HC        1 <0>        0.05907
     19 H9         -2.3085   -1.3380    0.6854 HC        1 <0>        0.05393
     20 H10        -0.5910   -1.6328    0.5722 HC        1 <0>        0.05393
     21 H11         1.0461   -0.9534   -2.8558 H1        1 <0>        0.03775
     22 H12         0.5706   -1.9238   -1.4652 H1        1 <0>        0.03775
     23 H13        -1.7075   -1.5052   -1.6680 H1        1 <0>        0.05290
     24 H14        -2.2798    0.1148   -1.2959 H1        1 <0>        0.05290
     25 H15        -1.0831    0.0160    2.3200 H1        1 <0>        0.02507
     26 H16        -2.1183    1.9121    1.8192 HO        1 <0>        0.39952
@<TRIPOS>BOND
     1    1    2 1
     2    1    3 1
     3    2    4 1
     4    3    6 1
     5    4    8 1
     6    5    7 1
     7    5    8 1
     8    6    9 1
     9    7    9 1
    10    8   10 1
    11    1   11 1
    12    1   12 1
    13    2   13 1
    14    2   14 1
    15    3   15 1
    16    3   16 1
    17    4   17 1
    18    4   18 1
    19    5   19 1
    20    5   20 1
    21    6   21 1
    22    6   22 1
    23    7   23 1
    24    7   24 1
    25    8   25 1
    26   10   26 1
@<TRIPOS>SUBSTRUCTURE
     1 <0>         1 GROUP 0 A     ****
