@<TRIPOS>MOLECULE
AlkEthOH_c1173
   25    24     1     0     0
SMALL
USER_CHARGES

@<TRIPOS>ATOM
      1 C1          3.1014    1.1645    1.6062 CT        1 <0>       -0.09733
      2 C2         -1.4330   -0.9539    1.4632 CT        1 <0>       -0.08837
      3 C3         -1.7590    1.1605    0.1780 CT        1 <0>       -0.08837
      4 C4          0.4836    0.2994   -1.7145 CT        1 <0>       -0.14953
      5 C5          2.4533    0.3984    0.4727 CT        1 <0>        0.13395
      6 C6         -1.2049   -0.2673    0.1065 CT        1 <0>       -0.07327
      7 C7          0.2917   -0.3253   -0.3250 CT        1 <0>        0.34955
      8 O1          0.6417   -1.7139   -0.3895 OH        1 <0>       -0.62346
      9 O2          1.0484    0.3715    0.6765 OS        1 <0>       -0.41196
     10 H1          2.7342    2.1939    1.6415 HC        1 <0>        0.04304
     11 H2          2.8936    0.6818    2.5668 HC        1 <0>        0.04304
     12 H3          4.1899    1.1816    1.4875 HC        1 <0>        0.04304
     13 H4         -0.8738   -0.4553    2.2613 HC        1 <0>        0.04124
     14 H5         -1.0930   -1.9949    1.4298 HC        1 <0>        0.04124
     15 H6         -2.4926   -0.9576    1.7400 HC        1 <0>        0.04124
     16 H7         -1.2075    1.7719    0.8995 HC        1 <0>        0.04124
     17 H8         -2.8112    1.1517    0.4833 HC        1 <0>        0.04124
     18 H9         -1.7136    1.6554   -0.7966 HC        1 <0>        0.04124
     19 H10         1.5342    0.2619   -2.0241 HC        1 <0>        0.05008
     20 H11        -0.0779   -0.2537   -2.4752 HC        1 <0>        0.05008
     21 H12         0.1827    1.3514   -1.7335 HC        1 <0>        0.05008
     22 H13         2.8249   -0.6302    0.4429 H1        1 <0>        0.03671
     23 H14         2.6612    0.8824   -0.4862 H1        1 <0>        0.03671
     24 H15        -1.7973   -0.8266   -0.6306 HC        1 <0>        0.03961
     25 H16         0.0621   -2.1490   -1.0366 HO        1 <0>        0.40896
@<TRIPOS>BOND
     1    1    5 1
     2    2    6 1
     3    3    6 1
     4    4    7 1
     5    5    9 1
     6    6    7 1
     7    7    8 1
     8    7    9 1
     9    1   10 1
    10    1   11 1
    11    1   12 1
    12    2   13 1
    13    2   14 1
    14    2   15 1
    15    3   16 1
    16    3   17 1
    17    3   18 1
    18    4   19 1
    19    4   20 1
    20    4   21 1
    21    5   22 1
    22    5   23 1
    23    6   24 1
    24    8   25 1
@<TRIPOS>SUBSTRUCTURE
     1 <0>         1 GROUP 0 A     ****
