@<TRIPOS>MOLECULE
AlkEthOH_c362
   30    29     1     0     0
SMALL
USER_CHARGES

@<TRIPOS>ATOM
      1 C1         -0.6006    2.3840   -1.5503 CT        1 <0>       -0.09221
      2 C2         -0.5737    0.5482   -3.2428 CT        1 <0>       -0.09221
      3 C3         -1.4806   -1.0404    0.9059 CT        1 <0>       -0.09053
      4 C4         -0.7505    0.4253    2.7934 CT        1 <0>       -0.09053
      5 C5          1.2322    1.8288    0.8652 CT        1 <0>       -0.12591
      6 C6          0.5667    0.2409   -0.9570 CT        1 <0>       -0.09992
      7 C7         -0.6083    0.8631   -1.7476 CT        1 <0>       -0.06322
      8 C8         -0.7905    0.2848    1.2679 CT        1 <0>       -0.04777
      9 C9          0.5998    0.4541    0.5821 CT        1 <0>        0.15859
     10 O1          1.4844   -0.5195    1.1545 OH        1 <0>       -0.60306
     11 H1          0.3230    2.8303   -1.9346 HC        1 <0>        0.03384
     12 H2         -1.4442    2.8490   -2.0717 HC        1 <0>        0.03384
     13 H3         -0.6860    2.6397   -0.4888 HC        1 <0>        0.03384
     14 H4          0.3571    0.8974   -3.7019 HC        1 <0>        0.03384
     15 H5         -1.4073    1.0340   -3.7620 HC        1 <0>        0.03384
     16 H6         -0.6699   -0.5252   -3.4273 HC        1 <0>        0.03384
     17 H7         -0.9005   -1.9023    1.2500 HC        1 <0>        0.03774
     18 H8         -1.5837   -1.1310   -0.1813 HC        1 <0>        0.03774
     19 H9         -2.4851   -1.1066    1.3353 HC        1 <0>        0.03774
     20 H10        -0.1042   -0.3267    3.2544 HC        1 <0>        0.03774
     21 H11        -1.7478    0.3369    3.2350 HC        1 <0>        0.03774
     22 H12        -0.3529    1.4068    3.0754 HC        1 <0>        0.03774
     23 H13         1.2745    2.0189    1.9446 HC        1 <0>        0.04319
     24 H14         2.2506    1.9035    0.4730 HC        1 <0>        0.04319
     25 H15         0.6312    2.6427    0.4470 HC        1 <0>        0.04319
     26 H16         1.5041    0.6228   -1.3829 HC        1 <0>        0.04570
     27 H17         0.5634   -0.8403   -1.1567 HC        1 <0>        0.04570
     28 H18        -1.5565    0.4938   -1.3413 HC        1 <0>        0.05347
     29 H19        -1.4541    1.0675    0.8783 HC        1 <0>        0.04772
     30 H20         2.3345   -0.4024    0.7084 HO        1 <0>        0.39513
@<TRIPOS>BOND
     1    1    7 1
     2    2    7 1
     3    3    8 1
     4    4    8 1
     5    5    9 1
     6    6    7 1
     7    6    9 1
     8    8    9 1
     9    9   10 1
    10    1   11 1
    11    1   12 1
    12    1   13 1
    13    2   14 1
    14    2   15 1
    15    2   16 1
    16    3   17 1
    17    3   18 1
    18    3   19 1
    19    4   20 1
    20    4   21 1
    21    4   22 1
    22    5   23 1
    23    5   24 1
    24    5   25 1
    25    6   26 1
    26    6   27 1
    27    7   28 1
    28    8   29 1
    29   10   30 1
@<TRIPOS>SUBSTRUCTURE
     1 <0>         1 GROUP 0 A     ****
