@<TRIPOS>MOLECULE
AlkEthOH_r1148
   25    25     1     0     0
SMALL
USER_CHARGES

@<TRIPOS>ATOM
      1 C1          1.8825    1.1568    0.7618 CT        1 <0>        0.09198
      2 C2          1.5392   -0.1372    1.4950 CT        1 <0>        0.10972
      3 C3          1.0131    0.3861   -1.3442 CT        1 <0>        0.07161
      4 C4         -0.8334   -0.0902    1.0679 CT        1 <0>        0.34192
      5 C5         -0.3655   -0.2987   -1.3053 CT        1 <0>        0.32978
      6 C6         -2.0990   -0.5540    1.7784 CT        1 <0>       -0.09204
      7 C7         -0.3922   -1.4105   -2.3571 CT        1 <0>       -0.10817
      8 O1          1.0761    1.4340   -0.3804 OS        1 <0>       -0.41847
      9 O2          0.2214   -0.1621    2.0316 OS        1 <0>       -0.44046
     10 O3         -0.6531   -0.9479   -0.0601 OS        1 <0>       -0.43532
     11 O4         -1.3892    0.6237   -1.6874 OH        1 <0>       -0.61209
     12 H1          1.7504    2.0039    1.4430 H1        1 <0>        0.05745
     13 H2          2.9327    1.1434    0.4494 H1        1 <0>        0.05745
     14 H3          1.6897   -1.0252    0.8732 H1        1 <0>        0.05647
     15 H4          2.2220   -0.2421    2.3455 H1        1 <0>        0.05647
     16 H5          1.8347   -0.3270   -1.2127 H1        1 <0>        0.05847
     17 H6          1.1498    0.8671   -2.3198 H1        1 <0>        0.05847
     18 H7         -0.9861    0.9557    0.7815 H2        1 <0>        0.07630
     19 H8         -1.9946   -1.5951    2.0843 HC        1 <0>        0.05352
     20 H9         -2.9554   -0.4661    1.1098 HC        1 <0>        0.05352
     21 H10        -2.2759    0.0585    2.6625 HC        1 <0>        0.05352
     22 H11        -1.3609   -1.9031   -2.3408 HC        1 <0>        0.05448
     23 H12         0.3860   -2.1368   -2.1380 HC        1 <0>        0.05448
     24 H13        -0.2208   -0.9833   -3.3418 HC        1 <0>        0.05448
     25 H14        -1.1743    0.9087   -2.5874 HO        1 <0>        0.41646
@<TRIPOS>BOND
     1    1    2 1
     2    1    8 1
     3    2    9 1
     4    3    5 1
     5    3    8 1
     6    4    6 1
     7    4    9 1
     8    4   10 1
     9    5    7 1
    10    5   10 1
    11    5   11 1
    12    1   12 1
    13    1   13 1
    14    2   14 1
    15    2   15 1
    16    3   16 1
    17    3   17 1
    18    4   18 1
    19    6   19 1
    20    6   20 1
    21    6   21 1
    22    7   22 1
    23    7   23 1
    24    7   24 1
    25   11   25 1
@<TRIPOS>SUBSTRUCTURE
     1 <0>         1 GROUP 0 A     ****
