@<TRIPOS>MOLECULE
AlkEthOH_c1121
   24    23     1     0     0
SMALL
USER_CHARGES

@<TRIPOS>ATOM
      1 C1          0.7363    0.6940    0.6308 CT        1 <0>       -0.09162
      2 C2          1.7969    4.2043   -3.3493 CT        1 <0>       -0.12070
      3 C3         -0.6413    3.8105   -3.7970 CT        1 <0>       -0.12070
      4 C4          0.3711    2.1443    0.3567 CT        1 <0>       -0.08016
      5 C5          0.5205    2.4896   -1.1266 CT        1 <0>       -0.07673
      6 C6          0.1877    3.9616   -1.3854 CT        1 <0>       -0.07032
      7 C7          0.3742    4.4386   -2.8403 CT        1 <0>        0.15191
      8 O1          0.1637    5.8571   -2.8549 OH        1 <0>       -0.60422
      9 H1          0.1100    0.0145    0.0443 HC        1 <0>        0.03294
     10 H2          0.6091    0.4507    1.6905 HC        1 <0>        0.03294
     11 H3          1.7812    0.5091    0.3628 HC        1 <0>        0.03294
     12 H4          2.5504    4.6416   -2.6872 HC        1 <0>        0.04192
     13 H5          2.0052    3.1316   -3.4382 HC        1 <0>        0.04192
     14 H6          1.9262    4.6270   -4.3522 HC        1 <0>        0.04192
     15 H7         -1.6719    3.9601   -3.4617 HC        1 <0>        0.04192
     16 H8         -0.5391    4.2298   -4.8045 HC        1 <0>        0.04192
     17 H9         -0.4673    2.7324   -3.8929 HC        1 <0>        0.04192
     18 H10         1.0150    2.7966    0.9581 HC        1 <0>        0.03947
     19 H11        -0.6618    2.3216    0.6781 HC        1 <0>        0.03947
     20 H12        -0.1430    1.8440   -1.7123 HC        1 <0>        0.03921
     21 H13         1.5477    2.2751   -1.4413 HC        1 <0>        0.03921
     22 H14        -0.8494    4.1559   -1.0787 HC        1 <0>        0.05421
     23 H15         0.7998    4.5924   -0.7261 HC        1 <0>        0.05421
     24 H16         0.2775    6.1348   -3.7744 HO        1 <0>        0.39642
@<TRIPOS>BOND
     1    1    4 1
     2    2    7 1
     3    3    7 1
     4    4    5 1
     5    5    6 1
     6    6    7 1
     7    7    8 1
     8    1    9 1
     9    1   10 1
    10    1   11 1
    11    2   12 1
    12    2   13 1
    13    2   14 1
    14    3   15 1
    15    3   16 1
    16    3   17 1
    17    4   18 1
    18    4   19 1
    19    5   20 1
    20    5   21 1
    21    6   22 1
    22    6   23 1
    23    8   24 1
@<TRIPOS>SUBSTRUCTURE
     1 <0>         1 GROUP 0 A     ****
