@<TRIPOS>MOLECULE
AlkEthOH_c56
   25    24     1     0     0
SMALL
USER_CHARGES

@<TRIPOS>ATOM
      1 C1          2.2509    1.0388    2.2965 CT        1 <0>       -0.12333
      2 C2         -1.6241    0.3052    2.2732 CT        1 <0>       -0.08798
      3 C3         -0.1437    0.8427    4.2122 CT        1 <0>       -0.08798
      4 C4         -0.4944    2.5343    2.4133 CT        1 <0>       -0.08798
      5 C5          1.6291   -1.6646    1.1132 CT        1 <0>        0.32930
      6 C6          0.8983    0.4211    1.9487 CT        1 <0>        0.15216
      7 C7         -0.3301    1.0282    2.6910 CT        1 <0>       -0.04575
      8 O1          1.6305   -3.0764    1.2684 OH        1 <0>       -0.58173
      9 O2          0.9838   -0.9867    2.1824 OS        1 <0>       -0.40715
     10 H1          2.4401    0.9406    3.3716 HC        1 <0>        0.04362
     11 H2          3.0733    0.5538    1.7647 HC        1 <0>        0.04362
     12 H3          2.2720    2.1119    2.0822 HC        1 <0>        0.04362
     13 H4         -1.8136    0.4001    1.1990 HC        1 <0>        0.03846
     14 H5         -2.4949    0.7232    2.7915 HC        1 <0>        0.03846
     15 H6         -1.5758   -0.7623    2.5156 HC        1 <0>        0.03846
     16 H7          0.7677    1.3411    4.5609 HC        1 <0>        0.03846
     17 H8         -0.0618   -0.2183    4.4752 HC        1 <0>        0.03846
     18 H9         -0.9882    1.2544    4.7756 HC        1 <0>        0.03846
     19 H10         0.4096    3.0853    2.6987 HC        1 <0>        0.03846
     20 H11        -0.6737    2.7339    1.3517 HC        1 <0>        0.03846
     21 H12        -1.3251    2.9622    2.9835 HC        1 <0>        0.03846
     22 H13         2.6519   -1.2989    0.9657 H2        1 <0>        0.01265
     23 H14         1.0617   -1.4390    0.2057 H2        1 <0>        0.01265
     24 H15         0.7468    0.5392    0.8686 H1        1 <0>        0.03214
     25 H16         2.0889   -3.4502    0.4969 HO        1 <0>        0.40600
@<TRIPOS>BOND
     1    1    6 1
     2    2    7 1
     3    3    7 1
     4    4    7 1
     5    5    8 1
     6    5    9 1
     7    6    7 1
     8    6    9 1
     9    1   10 1
    10    1   11 1
    11    1   12 1
    12    2   13 1
    13    2   14 1
    14    2   15 1
    15    3   16 1
    16    3   17 1
    17    3   18 1
    18    4   19 1
    19    4   20 1
    20    4   21 1
    21    5   22 1
    22    5   23 1
    23    6   24 1
    24    8   25 1
@<TRIPOS>SUBSTRUCTURE
     1 <0>         1 GROUP 0 A     ****
