@<TRIPOS>MOLECULE
AlkEthOH_c162
   29    28     1     0     0
SMALL
USER_CHARGES

@<TRIPOS>ATOM
      1 C1         -1.6413   -1.0962   -1.3652 CT        1 <0>       -0.09365
      2 C2         -2.3248    1.3003   -1.3106 CT        1 <0>       -0.09365
      3 C3         -1.7376    0.1105    0.8112 CT        1 <0>       -0.09365
      4 C4          2.5410    0.7414   -0.2723 CT        1 <0>       -0.12250
      5 C5          0.1242    0.6135   -0.8960 CT        1 <0>       -0.08750
      6 C6          1.7985   -1.7783    1.4018 CT        1 <0>        0.33716
      7 C7         -1.3833    0.2641   -0.6773 CT        1 <0>       -0.04437
      8 C8          1.1699    0.2110    0.1762 CT        1 <0>        0.34982
      9 O1          0.8826   -1.8957    2.4814 OH        1 <0>       -0.61456
     10 O2          0.8088    0.8365    1.4051 OH        1 <0>       -0.64653
     11 O3          1.2025   -1.2180    0.2383 OS        1 <0>       -0.46069
     12 H1         -0.9942   -1.8781   -0.9519 HC        1 <0>        0.03935
     13 H2         -2.6811   -1.4159   -1.2319 HC        1 <0>        0.03935
     14 H3         -1.4472   -1.0426   -2.4427 HC        1 <0>        0.03935
     15 H4         -2.1836    2.2889   -0.8577 HC        1 <0>        0.03935
     16 H5         -3.3747    1.0205   -1.1700 HC        1 <0>        0.03935
     17 H6         -2.1396    1.4169   -2.3830 HC        1 <0>        0.03935
     18 H7         -1.5751    1.0465    1.3567 HC        1 <0>        0.03935
     19 H8         -1.1175   -0.6595    1.2853 HC        1 <0>        0.03935
     20 H9         -2.7779   -0.1952    0.9553 HC        1 <0>        0.03935
     21 H10         3.3219    0.4847    0.4514 HC        1 <0>        0.05123
     22 H11         2.8158    0.3434   -1.2554 HC        1 <0>        0.05123
     23 H12         2.5379    1.8317   -0.3721 HC        1 <0>        0.05123
     24 H13         0.4274    0.1600   -1.8506 HC        1 <0>        0.05468
     25 H14         0.1893    1.7029   -1.0314 HC        1 <0>        0.05468
     26 H15         2.6914   -1.2341    1.7235 H2        1 <0>        0.05917
     27 H16         2.1119   -2.7932    1.1408 H2        1 <0>        0.05917
     28 H17         1.3681   -2.2836    3.2287 HO        1 <0>        0.41251
     29 H18         0.7658    1.7968    1.2626 HO        1 <0>        0.42207
@<TRIPOS>BOND
     1    1    7 1
     2    2    7 1
     3    3    7 1
     4    4    8 1
     5    5    7 1
     6    5    8 1
     7    6    9 1
     8    6   11 1
     9    8   10 1
    10    8   11 1
    11    1   12 1
    12    1   13 1
    13    1   14 1
    14    2   15 1
    15    2   16 1
    16    2   17 1
    17    3   18 1
    18    3   19 1
    19    3   20 1
    20    4   21 1
    21    4   22 1
    22    4   23 1
    23    5   24 1
    24    5   25 1
    25    6   26 1
    26    6   27 1
    27    9   28 1
    28   10   29 1
@<TRIPOS>SUBSTRUCTURE
     1 <0>         1 GROUP 0 A     ****
