@<TRIPOS>MOLECULE
AlkEthOH_c52
   25    24     1     0     0
SMALL
USER_CHARGES

@<TRIPOS>ATOM
      1 C1          0.7740    1.7371    1.5017 CT        1 <0>       -0.12686
      2 C2         -2.2690   -0.6440   -0.9224 CT        1 <0>       -0.12686
      3 C3          0.8019   -1.1591   -1.1478 CT        1 <0>       -0.08728
      4 C4         -0.0870   -1.2375    1.1792 CT        1 <0>       -0.08728
      5 C5          1.2044    0.8158    0.3618 CT        1 <0>        0.14423
      6 C6         -1.1779    0.3364   -0.4939 CT        1 <0>        0.14423
      7 C7          0.1713   -0.3009   -0.0227 CT        1 <0>       -0.02932
      8 O1          2.4486    0.2161    0.7367 OH        1 <0>       -0.60521
      9 O2         -0.9558    1.2427   -1.5765 OH        1 <0>       -0.60521
     10 H1          0.5590    1.1478    2.4007 HC        1 <0>        0.04239
     11 H2          1.5472    2.4647    1.7600 HC        1 <0>        0.04239
     12 H3         -0.1516    2.2689    1.2603 HC        1 <0>        0.04239
     13 H4         -1.9022   -1.2697   -1.7445 HC        1 <0>        0.04239
     14 H5         -2.5339   -1.3352   -0.1163 HC        1 <0>        0.04239
     15 H6         -3.1712   -0.1329   -1.2672 HC        1 <0>        0.04239
     16 H7          1.0145   -0.5581   -2.0393 HC        1 <0>        0.04194
     17 H8          0.1361   -1.9731   -1.4529 HC        1 <0>        0.04194
     18 H9          1.7542   -1.6005   -0.8368 HC        1 <0>        0.04194
     19 H10        -0.5356   -0.6985    2.0205 HC        1 <0>        0.04194
     20 H11         0.8414   -1.6924    1.5395 HC        1 <0>        0.04194
     21 H12        -0.7777   -2.0472    0.9192 HC        1 <0>        0.04194
     22 H13         1.4121    1.4323   -0.5214 H1        1 <0>        0.03908
     23 H14        -1.5934    0.9342    0.3251 H1        1 <0>        0.03908
     24 H15         3.0718    0.9454    0.8669 HO        1 <0>        0.39771
     25 H16        -1.8000    1.6907   -1.7339 HO        1 <0>        0.39771
@<TRIPOS>BOND
     1    1    5 1
     2    2    6 1
     3    3    7 1
     4    4    7 1
     5    5    7 1
     6    5    8 1
     7    6    7 1
     8    6    9 1
     9    1   10 1
    10    1   11 1
    11    1   12 1
    12    2   13 1
    13    2   14 1
    14    2   15 1
    15    3   16 1
    16    3   17 1
    17    3   18 1
    18    4   19 1
    19    4   20 1
    20    4   21 1
    21    5   22 1
    22    6   23 1
    23    8   24 1
    24    9   25 1
@<TRIPOS>SUBSTRUCTURE
     1 <0>         1 GROUP 0 A     ****
