@<TRIPOS>MOLECULE
AlkEthOH_r1009
   24    24     1     0     0
SMALL
USER_CHARGES

@<TRIPOS>ATOM
      1 C1         -1.3027    1.0631   -1.0372 CT        1 <0>       -0.14245
      2 C2         -1.9010   -0.3418   -1.0540 CT        1 <0>        0.12899
      3 C3         -0.1833   -1.5713    0.0158 CT        1 <0>        0.08014
      4 C4          0.2199    1.0989   -0.8639 CT        1 <0>        0.14898
      5 C5          0.7579   -0.6221    0.7662 CT        1 <0>        0.31862
      6 C6          0.7373    2.5170   -1.0890 CT        1 <0>       -0.09424
      7 C7          0.5731   -0.7770    2.2786 CT        1 <0>       -0.11374
      8 O1         -1.5336   -1.1272    0.0767 OS        1 <0>       -0.40160
      9 O2          0.5385    0.7600    0.4833 OS        1 <0>       -0.39928
     10 O3          2.0939   -0.9996    0.4234 OH        1 <0>       -0.61760
     11 H1         -1.5923    1.5713   -1.9644 HC        1 <0>        0.06030
     12 H2         -1.7601    1.6101   -0.2022 HC        1 <0>        0.06030
     13 H3         -2.9933   -0.2568   -1.0426 H1        1 <0>        0.04627
     14 H4         -1.6399   -0.8686   -1.9798 H1        1 <0>        0.04627
     15 H5          0.1381   -1.7257   -1.0226 H1        1 <0>        0.05799
     16 H6         -0.1393   -2.5679    0.4723 H1        1 <0>        0.05799
     17 H7          0.7273    0.4350   -1.5734 H1        1 <0>        0.05156
     18 H8          0.2507    3.2028   -0.3969 HC        1 <0>        0.04582
     19 H9          0.5242    2.8310   -2.1098 HC        1 <0>        0.04582
     20 H10         1.8135    2.5488   -0.9240 HC        1 <0>        0.04582
     21 H11         1.2453   -0.0994    2.7996 HC        1 <0>        0.05581
     22 H12         0.7963   -1.8003    2.5705 HC        1 <0>        0.05581
     23 H13        -0.4541   -0.5418    2.5466 HC        1 <0>        0.05581
     24 H14         2.1982   -1.9187    0.7099 HO        1 <0>        0.40661
@<TRIPOS>BOND
     1    1    2 1
     2    1    4 1
     3    2    8 1
     4    3    5 1
     5    3    8 1
     6    4    6 1
     7    4    9 1
     8    5    7 1
     9    5    9 1
    10    5   10 1
    11    1   11 1
    12    1   12 1
    13    2   13 1
    14    2   14 1
    15    3   15 1
    16    3   16 1
    17    4   17 1
    18    6   18 1
    19    6   19 1
    20    6   20 1
    21    7   21 1
    22    7   22 1
    23    7   23 1
    24   10   24 1
@<TRIPOS>SUBSTRUCTURE
     1 <0>         1 GROUP 0 A     ****
