@<TRIPOS>MOLECULE
AlkEthOH_r1121
   29    29     1     0     0
SMALL
USER_CHARGES

@<TRIPOS>ATOM
      1 C1         -1.1437    1.6960    0.5756 CT        1 <0>       -0.05591
      2 C2         -1.9257    0.3826    0.6605 CT        1 <0>       -0.10854
      3 C3          0.2470    1.6502   -0.0745 CT        1 <0>       -0.09682
      4 C4         -2.1030   -0.3565   -0.6649 CT        1 <0>        0.14466
      5 C5          0.1477   -1.2804   -0.8192 CT        1 <0>        0.33674
      6 C6          1.2141    0.5507    0.4243 CT        1 <0>        0.16740
      7 C7         -0.2597   -2.7320   -0.5878 CT        1 <0>       -0.11545
      8 C8          2.5091    0.5782   -0.4030 CT        1 <0>       -0.10407
      9 C9          1.5837    0.8116    1.8942 CT        1 <0>       -0.10407
     10 O1         -0.9122   -0.5366   -1.4209 OS        1 <0>       -0.45025
     11 O2          0.6428   -0.7639    0.4158 OS        1 <0>       -0.44760
     12 H1         -1.7489    2.4261    0.0230 HC        1 <0>        0.03324
     13 H2         -1.0465    2.1002    1.5907 HC        1 <0>        0.03324
     14 H3         -1.4551   -0.2764    1.3975 HC        1 <0>        0.05111
     15 H4         -2.9215    0.5978    1.0686 HC        1 <0>        0.05111
     16 H5          0.1188    1.5685   -1.1604 HC        1 <0>        0.05071
     17 H6          0.7173    2.6325    0.0720 HC        1 <0>        0.05071
     18 H7         -2.5929   -1.3224   -0.5024 H1        1 <0>        0.04120
     19 H8         -2.7815    0.2257   -1.2987 H1        1 <0>        0.04120
     20 H9          0.9652   -1.2954   -1.5468 H2        1 <0>        0.06709
     21 H10        -1.0755   -2.7780    0.1328 HC        1 <0>        0.05192
     22 H11         0.5873   -3.2980   -0.2018 HC        1 <0>        0.05192
     23 H12        -0.5883   -3.1791   -1.5254 HC        1 <0>        0.05192
     24 H13         3.1805   -0.1963   -0.0456 HC        1 <0>        0.04309
     25 H14         2.9832    1.5488   -0.2963 HC        1 <0>        0.04309
     26 H15         2.2721    0.4013   -1.4475 HC        1 <0>        0.04309
     27 H16         2.2618    0.0366    2.2364 HC        1 <0>        0.04309
     28 H17         0.6820    0.8001    2.4979 HC        1 <0>        0.04309
     29 H18         2.0655    1.7806    1.9760 HC        1 <0>        0.04309
@<TRIPOS>BOND
     1    1    2 1
     2    1    3 1
     3    2    4 1
     4    3    6 1
     5    4   10 1
     6    5    7 1
     7    5   10 1
     8    5   11 1
     9    6    8 1
    10    6    9 1
    11    6   11 1
    12    1   12 1
    13    1   13 1
    14    2   14 1
    15    2   15 1
    16    3   16 1
    17    3   17 1
    18    4   18 1
    19    4   19 1
    20    5   20 1
    21    7   21 1
    22    7   22 1
    23    7   23 1
    24    8   24 1
    25    8   25 1
    26    8   26 1
    27    9   27 1
    28    9   28 1
    29    9   29 1
@<TRIPOS>SUBSTRUCTURE
     1 <0>         1 GROUP 0 A     ****
