@<TRIPOS>MOLECULE
AlkEthOH_r211
   27    27     1     0     0
SMALL
USER_CHARGES

@<TRIPOS>ATOM
      1 C1          1.7388    1.1148    1.1477 CT        1 <0>       -0.11056
      2 C2          1.2265    0.1128    2.1833 CT        1 <0>       -0.09142
      3 C3          0.6769    2.0605    0.5827 CT        1 <0>        0.13584
      4 C4          0.0717   -0.7757    1.7280 CT        1 <0>        0.12732
      5 C5         -0.1634    0.5325   -1.0620 CT        1 <0>        0.31112
      6 C6         -0.4660   -0.9351   -0.6605 CT        1 <0>        0.15889
      7 C7         -1.9630   -1.1864   -0.4019 CT        1 <0>       -0.09912
      8 C8         -0.0356   -1.8635   -1.8131 CT        1 <0>       -0.09912
      9 O1         -0.4592    1.4051    0.0265 OS        1 <0>       -0.45278
     10 O2          0.3382   -1.3571    0.4567 OS        1 <0>       -0.42224
     11 O3         -0.9649    0.8921   -2.1875 OH        1 <0>       -0.60553
     12 H1          2.5317    1.7181    1.6068 HC        1 <0>        0.05176
     13 H2          2.2209    0.5593    0.3355 HC        1 <0>        0.05176
     14 H3          2.0718   -0.5325    2.4548 HC        1 <0>        0.04557
     15 H4          0.9314    0.6410    3.0976 HC        1 <0>        0.04557
     16 H5          0.3079    2.7082    1.3854 H1        1 <0>        0.04553
     17 H6          1.1185    2.7149   -0.1780 H1        1 <0>        0.04553
     18 H7         -0.0306   -1.6011    2.4417 H1        1 <0>        0.05164
     19 H8         -0.8724   -0.2275    1.7667 H1        1 <0>        0.05164
     20 H9          0.8840    0.6266   -1.3723 H2        1 <0>        0.04241
     21 H10        -2.1078   -2.2255   -0.1267 HC        1 <0>        0.05018
     22 H11        -2.5227   -0.9649   -1.3040 HC        1 <0>        0.05018
     23 H12        -2.2982   -0.5435    0.4048 HC        1 <0>        0.05018
     24 H13        -0.2447   -2.8911   -1.5383 HC        1 <0>        0.05018
     25 H14         1.0265   -1.7395   -1.9912 HC        1 <0>        0.05018
     26 H15        -0.5913   -1.6015   -2.7064 HC        1 <0>        0.05018
     27 H16        -0.7421    1.8110   -2.3998 HO        1 <0>        0.41511
@<TRIPOS>BOND
     1    1    2 1
     2    1    3 1
     3    2    4 1
     4    3    9 1
     5    4   10 1
     6    5    6 1
     7    5    9 1
     8    5   11 1
     9    6    7 1
    10    6    8 1
    11    6   10 1
    12    1   12 1
    13    1   13 1
    14    2   14 1
    15    2   15 1
    16    3   16 1
    17    3   17 1
    18    4   18 1
    19    4   19 1
    20    5   20 1
    21    7   21 1
    22    7   22 1
    23    7   23 1
    24    8   24 1
    25    8   25 1
    26    8   26 1
    27   11   27 1
@<TRIPOS>SUBSTRUCTURE
     1 <0>         1 GROUP 0 A     ****
