@<TRIPOS>MOLECULE
AlkEthOH_c382
   27    26     1     0     0
SMALL
USER_CHARGES

@<TRIPOS>ATOM
      1 C1          1.4775   -2.0194   -1.4816 CT        1 <0>       -0.09207
      2 C2         -0.8910   -2.7445   -1.1620 CT        1 <0>       -0.09207
      3 C3          0.5788    1.2465   -2.2329 CT        1 <0>       -0.10163
      4 C4          1.9217    0.8707   -0.1563 CT        1 <0>       -0.10163
      5 C5         -0.2938    1.7972    1.2947 CT        1 <0>        0.11649
      6 C6         -0.2724   -0.3947   -0.5266 CT        1 <0>       -0.09911
      7 C7          0.0204   -1.5586   -1.5011 CT        1 <0>       -0.06099
      8 C8          0.5076    0.9241   -0.7347 CT        1 <0>        0.15526
      9 O1         -0.1778    2.0061   -0.1039 OS        1 <0>       -0.42872
     10 H1          1.7794   -2.3458   -0.4826 HC        1 <0>        0.03381
     11 H2          2.1485   -1.2002   -1.7625 HC        1 <0>        0.03381
     12 H3          1.6435   -2.8450   -2.1816 HC        1 <0>        0.03381
     13 H4         -0.6936   -3.1107   -0.1488 HC        1 <0>        0.03381
     14 H5         -1.9454   -2.4518   -1.2086 HC        1 <0>        0.03381
     15 H6         -0.7388   -3.5753   -1.8595 HC        1 <0>        0.03381
     16 H7         -0.4180    1.2934   -2.6838 HC        1 <0>        0.04413
     17 H8          1.0815    2.2057   -2.4029 HC        1 <0>        0.04413
     18 H9          1.1668    0.4916   -2.7676 HC        1 <0>        0.04413
     19 H10         1.9093    0.6421    0.9145 HC        1 <0>        0.04413
     20 H11         2.4147    1.8458   -0.2463 HC        1 <0>        0.04413
     21 H12         2.5383    0.1254   -0.6687 HC        1 <0>        0.04413
     22 H13        -0.8215    2.6403    1.7473 H1        1 <0>        0.03028
     23 H14         0.7025    1.6993    1.7333 H1        1 <0>        0.03028
     24 H15        -0.8592    0.8792    1.4713 H1        1 <0>        0.03028
     25 H16        -1.3464   -0.1708   -0.5872 HC        1 <0>        0.04720
     26 H17        -0.0870   -0.7533    0.4955 HC        1 <0>        0.04720
     27 H18        -0.2283   -1.2440   -2.5215 HC        1 <0>        0.05159
@<TRIPOS>BOND
     1    1    7 1
     2    2    7 1
     3    3    8 1
     4    4    8 1
     5    5    9 1
     6    6    7 1
     7    6    8 1
     8    8    9 1
     9    1   10 1
    10    1   11 1
    11    1   12 1
    12    2   13 1
    13    2   14 1
    14    2   15 1
    15    3   16 1
    16    3   17 1
    17    3   18 1
    18    4   19 1
    19    4   20 1
    20    4   21 1
    21    5   22 1
    22    5   23 1
    23    5   24 1
    24    6   25 1
    25    6   26 1
    26    7   27 1
@<TRIPOS>SUBSTRUCTURE
     1 <0>         1 GROUP 0 A     ****
