@<TRIPOS>MOLECULE
AlkEthOH_r342
   25    25     1     0     0
SMALL
USER_CHARGES

@<TRIPOS>ATOM
      1 C1          0.8280   -0.2618   -0.6683 CT        1 <0>       -0.07188
      2 C2          1.5521   -1.4908   -0.1318 CT        1 <0>       -0.07709
      3 C3          1.7668    0.9283   -0.8142 CT        1 <0>       -0.11099
      4 C4          2.7775   -1.8370   -0.9770 CT        1 <0>       -0.07339
      5 C5          2.9945    0.5883   -1.6633 CT        1 <0>        0.15065
      6 C6          3.7653   -0.6565   -1.1442 CT        1 <0>       -0.04106
      7 C7          4.8458   -1.0697   -2.1657 CT        1 <0>       -0.08383
      8 C8          4.4817   -0.3649    0.1913 CT        1 <0>       -0.08383
      9 O1          3.8274    1.7449   -1.6991 OH        1 <0>       -0.59951
     10 H1          0.3860   -0.4973   -1.6444 HC        1 <0>        0.03988
     11 H2          0.0002    0.0000    0.0002 HC        1 <0>        0.03988
     12 H3          1.8490   -1.3198    0.9092 HC        1 <0>        0.04160
     13 H4          0.8638   -2.3438   -0.1231 HC        1 <0>        0.04160
     14 H5          1.2290    1.7688   -1.2706 HC        1 <0>        0.04542
     15 H6          2.0758    1.2891    0.1745 HC        1 <0>        0.04542
     16 H7          3.2880   -2.6999   -0.5311 HC        1 <0>        0.04097
     17 H8          2.4305   -2.1629   -1.9669 HC        1 <0>        0.04097
     18 H9          2.6536    0.4050   -2.6908 H1        1 <0>        0.02974
     19 H10         5.5441   -0.2510   -2.2918 HC        1 <0>        0.03813
     20 H11         4.3688   -1.2968   -3.1117 HC        1 <0>        0.03813
     21 H12         5.3660   -1.9448   -1.7950 HC        1 <0>        0.03813
     22 H13         5.1665    0.4629    0.0512 HC        1 <0>        0.03813
     23 H14         5.0285   -1.2482    0.4988 HC        1 <0>        0.03813
     24 H15         3.7418   -0.1092    0.9404 HC        1 <0>        0.03813
     25 H16         3.2988    2.4530   -2.0983 HO        1 <0>        0.39667
@<TRIPOS>BOND
     1    1    2 1
     2    1    3 1
     3    2    4 1
     4    3    5 1
     5    4    6 1
     6    5    6 1
     7    5    9 1
     8    6    7 1
     9    6    8 1
    10    1   10 1
    11    1   11 1
    12    2   12 1
    13    2   13 1
    14    3   14 1
    15    3   15 1
    16    4   16 1
    17    4   17 1
    18    5   18 1
    19    7   19 1
    20    7   20 1
    21    7   21 1
    22    8   22 1
    23    8   23 1
    24    8   24 1
    25    9   25 1
@<TRIPOS>SUBSTRUCTURE
     1 <0>         1 GROUP 0 A     ****
