@<TRIPOS>MOLECULE
AlkEthOH_r702
   23    23     1     0     0
SMALL
USER_CHARGES

@<TRIPOS>ATOM
      1 C1         -0.4945   -0.4689    2.0707 CT        1 <0>       -0.10613
      2 C2         -1.1307    0.8566    1.6549 CT        1 <0>       -0.10613
      3 C3         -0.2684   -1.4306    0.9114 CT        1 <0>        0.13886
      4 C4         -0.3691    1.5828    0.5538 CT        1 <0>        0.13886
      5 C5          0.4295   -0.1025   -0.9853 CT        1 <0>        0.34556
      6 C6          1.7182    0.5654   -1.4809 CT        1 <0>       -0.10689
      7 C7         -0.1430   -0.9421   -2.1341 CT        1 <0>       -0.10689
      8 O1          0.7998   -0.9658    0.0946 OS        1 <0>       -0.45161
      9 O2         -0.5416    0.9051   -0.6852 OS        1 <0>       -0.45161
     10 H1          0.4657   -0.2576    2.5576 HC        1 <0>        0.04948
     11 H2         -1.1407   -0.9473    2.8157 HC        1 <0>        0.04948
     12 H3         -2.1566    0.6621    1.3187 HC        1 <0>        0.04948
     13 H4         -1.1929    1.5043    2.5370 HC        1 <0>        0.04948
     14 H5          0.0480   -2.3967    1.3188 H1        1 <0>        0.05032
     15 H6         -1.1862   -1.6052    0.3410 H1        1 <0>        0.05032
     16 H7         -0.8065    2.5790    0.4283 H1        1 <0>        0.05032
     17 H8          0.6855    1.7223    0.8110 H1        1 <0>        0.05032
     18 H9          2.1444    1.1677   -0.6832 HC        1 <0>        0.05113
     19 H10         1.4925    1.2010   -2.3328 HC        1 <0>        0.05113
     20 H11         2.4314   -0.1986   -1.7781 HC        1 <0>        0.05113
     21 H12        -1.0589   -1.4270   -1.8073 HC        1 <0>        0.05113
     22 H13         0.5812   -1.6972   -2.4272 HC        1 <0>        0.05113
     23 H14        -0.3575   -0.2977   -2.9822 HC        1 <0>        0.05113
@<TRIPOS>BOND
     1    1    2 1
     2    1    3 1
     3    2    4 1
     4    3    8 1
     5    4    9 1
     6    5    6 1
     7    5    7 1
     8    5    8 1
     9    5    9 1
    10    1   10 1
    11    1   11 1
    12    2   12 1
    13    2   13 1
    14    3   14 1
    15    3   15 1
    16    4   16 1
    17    4   17 1
    18    6   18 1
    19    6   19 1
    20    6   20 1
    21    7   21 1
    22    7   22 1
    23    7   23 1
@<TRIPOS>SUBSTRUCTURE
     1 <0>         1 GROUP 0 A     ****
