@<TRIPOS>MOLECULE
AlkEthOH_r645
   26    26     1     0     0
SMALL
USER_CHARGES

@<TRIPOS>ATOM
      1 C1          0.2556    2.1737   -0.5739 CT        1 <0>       -0.14925
      2 C2          1.5375    1.3933   -0.8692 CT        1 <0>        0.13842
      3 C3         -0.9977    1.5955   -1.2328 CT        1 <0>        0.13842
      4 C4          1.1661   -0.3575    0.7314 CT        1 <0>        0.13843
      5 C5         -1.3647   -0.1557    0.3685 CT        1 <0>        0.13843
      6 C6         -0.2071   -1.0624    0.8536 CT        1 <0>       -0.09249
      7 C7         -0.4476   -1.4265    2.3285 CT        1 <0>       -0.08501
      8 C8         -0.1906   -2.3585    0.0174 CT        1 <0>       -0.08501
      9 O1          1.4428   -0.0061   -0.6227 OS        1 <0>       -0.40249
     10 O2         -1.1942    0.2042   -1.0009 OS        1 <0>       -0.40249
     11 H1          0.1034    2.2136    0.5098 HC        1 <0>        0.04892
     12 H2          0.3849    3.2131   -0.8976 HC        1 <0>        0.04892
     13 H3          1.7902    1.5098   -1.9286 H1        1 <0>        0.04477
     14 H4          2.3758    1.8041   -0.2946 H1        1 <0>        0.04477
     15 H5         -1.8888    2.1441   -0.9062 H1        1 <0>        0.04477
     16 H6         -0.9232    1.7262   -2.3178 H1        1 <0>        0.04477
     17 H7          1.2298    0.5092    1.4003 H1        1 <0>        0.03842
     18 H8          1.9602   -1.0458    1.0455 H1        1 <0>        0.03842
     19 H9         -2.3120   -0.7047    0.4332 H1        1 <0>        0.03842
     20 H10        -1.4768    0.7252    1.0121 H1        1 <0>        0.03842
     21 H11        -1.4087   -1.9213    2.4232 HC        1 <0>        0.03874
     22 H12        -0.4427   -0.5210    2.9264 HC        1 <0>        0.03874
     23 H13         0.3404   -2.0916    2.6663 HC        1 <0>        0.03874
     24 H14        -1.1531   -2.8486    0.1055 HC        1 <0>        0.03874
     25 H15         0.5904   -3.0103    0.3906 HC        1 <0>        0.03874
     26 H16         0.0021   -2.1082   -1.0193 HC        1 <0>        0.03874
@<TRIPOS>BOND
     1    1    2 1
     2    1    3 1
     3    2    9 1
     4    3   10 1
     5    4    6 1
     6    4    9 1
     7    5    6 1
     8    5   10 1
     9    6    7 1
    10    6    8 1
    11    1   11 1
    12    1   12 1
    13    2   13 1
    14    2   14 1
    15    3   15 1
    16    3   16 1
    17    4   17 1
    18    4   18 1
    19    5   19 1
    20    5   20 1
    21    7   21 1
    22    7   22 1
    23    7   23 1
    24    8   24 1
    25    8   25 1
    26    8   26 1
@<TRIPOS>SUBSTRUCTURE
     1 <0>         1 GROUP 0 A     ****
