@<TRIPOS>MOLECULE
AlkEthOH_r553
   27    27     1     0     0
SMALL
USER_CHARGES

@<TRIPOS>ATOM
      1 C1          0.4051    1.3537    1.6311 CT        1 <0>       -0.14776
      2 C2          0.2136   -1.6633   -0.2340 CT        1 <0>       -0.13984
      3 C3          0.0802    0.0091    2.2776 CT        1 <0>        0.13514
      4 C4         -0.7432   -1.8103    0.9556 CT        1 <0>        0.13768
      5 C5          0.8190    1.2377    0.1602 CT        1 <0>        0.33585
      6 C6         -0.1278   -0.5333   -1.2362 CT        1 <0>        0.16382
      7 C7          0.9390   -0.4574   -2.3407 CT        1 <0>       -0.10326
      8 C8         -1.4838   -0.8131   -1.9041 CT        1 <0>       -0.10326
      9 O1         -1.0365   -0.5889    1.6257 OS        1 <0>       -0.40334
     10 O2         -0.2772    0.7456   -0.6059 OS        1 <0>       -0.38577
     11 O3          1.2114    2.5204   -0.3293 OH        1 <0>       -0.60017
     12 H1         -0.4833    1.9962    1.6909 HC        1 <0>        0.06473
     13 H2          1.1969    1.8551    2.2001 HC        1 <0>        0.06473
     14 H3          1.2221   -1.5004    0.1628 HC        1 <0>        0.04864
     15 H4          0.2590   -2.6248   -0.7619 HC        1 <0>        0.04864
     16 H5          0.9578   -0.6473    2.2930 H1        1 <0>        0.03966
     17 H6         -0.2111    0.1806    3.3194 H1        1 <0>        0.03966
     18 H7         -1.6976   -2.2181    0.6063 H1        1 <0>        0.04650
     19 H8         -0.3437   -2.5335    1.6767 H1        1 <0>        0.04650
     20 H9          1.7076    0.5818    0.0852 H2        1 <0>        0.03048
     21 H10         0.6835    0.3388   -3.0327 HC        1 <0>        0.04649
     22 H11         0.9746   -1.4037   -2.8711 HC        1 <0>        0.04649
     23 H12         1.9063   -0.2542   -1.8922 HC        1 <0>        0.04649
     24 H13        -1.7113   -0.0148   -2.6035 HC        1 <0>        0.04649
     25 H14        -2.2560   -0.8616   -1.1428 HC        1 <0>        0.04649
     26 H15        -1.4347   -1.7591   -2.4342 HC        1 <0>        0.04649
     27 H16         1.9579    2.8062    0.2186 HO        1 <0>        0.40243
@<TRIPOS>BOND
     1    1    3 1
     2    1    5 1
     3    2    4 1
     4    2    6 1
     5    3    9 1
     6    4    9 1
     7    5   10 1
     8    5   11 1
     9    6    7 1
    10    6    8 1
    11    6   10 1
    12    1   12 1
    13    1   13 1
    14    2   14 1
    15    2   15 1
    16    3   16 1
    17    3   17 1
    18    4   18 1
    19    4   19 1
    20    5   20 1
    21    7   21 1
    22    7   22 1
    23    7   23 1
    24    8   24 1
    25    8   25 1
    26    8   26 1
    27   11   27 1
@<TRIPOS>SUBSTRUCTURE
     1 <0>         1 GROUP 0 A     ****
