@<TRIPOS>MOLECULE
AlkEthOH_r1120
   21    21     1     0     0
SMALL
USER_CHARGES

@<TRIPOS>ATOM
      1 C1         -0.8979    0.1780   -1.7900 CT        1 <0>       -0.10281
      2 C2         -0.0742    1.3255   -1.2050 CT        1 <0>       -0.13076
      3 C3         -1.4758   -0.7733   -0.7478 CT        1 <0>        0.13562
      4 C4          1.0162    0.8841   -0.2311 CT        1 <0>        0.33867
      5 C5          0.2199   -1.0321    0.9407 CT        1 <0>        0.33995
      6 C6         -0.5439   -1.4210    2.2000 CT        1 <0>       -0.11290
      7 O1         -0.4377   -1.5807   -0.2027 OS        1 <0>       -0.46192
      8 O2          0.3978    0.3836    0.9492 OS        1 <0>       -0.43399
      9 O3          1.7957    2.0358    0.0867 OH        1 <0>       -0.59171
     10 H1         -1.7165    0.6053   -2.3808 HC        1 <0>        0.05361
     11 H2         -0.2599   -0.3893   -2.4792 HC        1 <0>        0.05361
     12 H3          0.3727    1.8996   -2.0263 HC        1 <0>        0.05573
     13 H4         -0.7549    2.0161   -0.6893 HC        1 <0>        0.05573
     14 H5         -2.0391   -0.2451    0.0294 H1        1 <0>        0.05483
     15 H6         -2.1719   -1.4552   -1.2476 H1        1 <0>        0.05483
     16 H7          1.6837    0.1443   -0.6901 H2        1 <0>        0.04941
     17 H8          1.2099   -1.5002    0.9916 H2        1 <0>        0.07098
     18 H9         -1.5378   -0.9731    2.1871 HC        1 <0>        0.05442
     19 H10        -0.0099   -1.0706    3.0835 HC        1 <0>        0.05442
     20 H11        -0.6454   -2.5050    2.2551 HC        1 <0>        0.05442
     21 H12         2.1664    2.3562   -0.7498 HO        1 <0>        0.40786
@<TRIPOS>BOND
     1    1    2 1
     2    1    3 1
     3    2    4 1
     4    3    7 1
     5    4    8 1
     6    4    9 1
     7    5    6 1
     8    5    7 1
     9    5    8 1
    10    1   10 1
    11    1   11 1
    12    2   12 1
    13    2   13 1
    14    3   14 1
    15    3   15 1
    16    4   16 1
    17    5   17 1
    18    6   18 1
    19    6   19 1
    20    6   20 1
    21    9   21 1
@<TRIPOS>SUBSTRUCTURE
     1 <0>         1 GROUP 0 A     ****
