@<TRIPOS>MOLECULE
AlkEthOH_r416
   32    32     1     0     0
SMALL
USER_CHARGES

@<TRIPOS>ATOM
      1 C1          2.2207   -0.5345    0.0662 CT        1 <0>       -0.07239
      2 C2          1.6849   -1.9685    0.1314 CT        1 <0>       -0.09897
      3 C3          1.4411    0.4662    0.9303 CT        1 <0>       -0.07111
      4 C4         -0.5070    0.7313   -0.8044 CT        1 <0>       -0.07663
      5 C5          0.2952   -2.1351   -0.4681 CT        1 <0>        0.14642
      6 C6          0.4808    1.4303    0.1811 CT        1 <0>       -0.03679
      7 C7         -1.4060   -0.4110   -0.2750 CT        1 <0>        0.35714
      8 C8         -0.2831    2.2529    1.2422 CT        1 <0>       -0.08982
      9 C9          1.3151    2.4404   -0.6464 CT        1 <0>       -0.08982
     10 C10        -2.2932   -0.9629   -1.4018 CT        1 <0>       -0.14649
     11 O1         -0.6595   -1.4588    0.3403 OS        1 <0>       -0.46193
     12 O2         -2.2890    0.1497    0.7041 OH        1 <0>       -0.59205
     13 H1          3.2895   -0.5311    0.2941 HC        1 <0>        0.03729
     14 H2          2.1334   -0.2114   -0.9785 HC        1 <0>        0.03729
     15 H3          2.3896   -2.6340   -0.3812 HC        1 <0>        0.04821
     16 H4          1.6530   -2.2783    1.1821 HC        1 <0>        0.04821
     17 H5          0.8344   -0.1192    1.6370 HC        1 <0>        0.05061
     18 H6          2.1316    1.0350    1.5661 HC        1 <0>        0.05061
     19 H7         -1.1573    1.4986   -1.2196 HC        1 <0>        0.05116
     20 H8          0.0547    0.3552   -1.6582 HC        1 <0>        0.05116
     21 H9          0.2765   -1.6520   -1.4510 H1        1 <0>        0.03841
     22 H10         0.0576   -3.1918   -0.6281 H1        1 <0>        0.03841
     23 H11        -0.9562    2.9292    0.7349 HC        1 <0>        0.03594
     24 H12         0.4342    2.8077    1.8300 HC        1 <0>        0.03594
     25 H13        -0.8384    1.5722    1.8717 HC        1 <0>        0.03594
     26 H14         0.6421    3.1108   -1.1673 HC        1 <0>        0.03594
     27 H15         1.9204    1.8961   -1.3611 HC        1 <0>        0.03594
     28 H16         1.9525    3.0043    0.0241 HC        1 <0>        0.03594
     29 H17        -2.9192   -1.7644   -1.0157 HC        1 <0>        0.04843
     30 H18        -1.6683   -1.3501   -2.2035 HC        1 <0>        0.04843
     31 H19        -2.9264   -0.1689   -1.7915 HC        1 <0>        0.04843
     32 H20        -2.8354   -0.5835    1.0152 HO        1 <0>        0.42015
@<TRIPOS>BOND
     1    1    2 1
     2    1    3 1
     3    2    5 1
     4    3    6 1
     5    4    6 1
     6    4    7 1
     7    5   11 1
     8    6    8 1
     9    6    9 1
    10    7   10 1
    11    7   11 1
    12    7   12 1
    13    1   13 1
    14    1   14 1
    15    2   15 1
    16    2   16 1
    17    3   17 1
    18    3   18 1
    19    4   19 1
    20    4   20 1
    21    5   21 1
    22    5   22 1
    23    8   23 1
    24    8   24 1
    25    8   25 1
    26    9   26 1
    27    9   27 1
    28    9   28 1
    29   10   29 1
    30   10   30 1
    31   10   31 1
    32   12   32 1
@<TRIPOS>SUBSTRUCTURE
     1 <0>         1 GROUP 0 A     ****
