@<TRIPOS>MOLECULE
AlkEthOH_c1134
   21    20     1     0     0
SMALL
USER_CHARGES

@<TRIPOS>ATOM
      1 C1          1.7833   -1.3584    0.9178 CT        1 <0>       -0.09223
      2 C2          1.1442   -1.8866    2.1933 CT        1 <0>       -0.08009
      3 C3         -0.1230   -1.1065    2.5457 CT        1 <0>       -0.07899
      4 C4         -0.7660   -1.5523    3.8620 CT        1 <0>       -0.07812
      5 C5         -2.0456   -0.7898    4.2020 CT        1 <0>       -0.08452
      6 C6         -2.6297   -1.2442    5.5331 CT        1 <0>        0.13223
      7 O1         -3.8211   -0.5123    5.7858 OH        1 <0>       -0.60186
      8 H1          1.0759   -1.4224    0.0850 HC        1 <0>        0.03309
      9 H2          2.0797   -0.3109    1.0323 HC        1 <0>        0.03309
     10 H3          2.6719   -1.9406    0.6536 HC        1 <0>        0.03309
     11 H4          1.8672   -1.8141    3.0137 HC        1 <0>        0.03791
     12 H5          0.9125   -2.9479    2.0545 HC        1 <0>        0.03791
     13 H6         -0.8521   -1.1958    1.7312 HC        1 <0>        0.04127
     14 H7          0.1252   -0.0410    2.6309 HC        1 <0>        0.04127
     15 H8         -0.0356   -1.4015    4.6668 HC        1 <0>        0.03935
     16 H9         -0.9747   -2.6284    3.8233 HC        1 <0>        0.03935
     17 H10        -2.8003   -0.9283    3.4193 HC        1 <0>        0.05519
     18 H11        -1.8465    0.2883    4.2424 HC        1 <0>        0.05519
     19 H12        -2.8747   -2.3107    5.5080 H1        1 <0>        0.01925
     20 H13        -1.9274   -1.0587    6.3521 H1        1 <0>        0.01925
     21 H14        -4.1667   -0.8245    6.6378 HO        1 <0>        0.39837
@<TRIPOS>BOND
     1    1    2 1
     2    2    3 1
     3    3    4 1
     4    4    5 1
     5    5    6 1
     6    6    7 1
     7    1    8 1
     8    1    9 1
     9    1   10 1
    10    2   11 1
    11    2   12 1
    12    3   13 1
    13    3   14 1
    14    4   15 1
    15    4   16 1
    16    5   17 1
    17    5   18 1
    18    6   19 1
    19    6   20 1
    20    7   21 1
@<TRIPOS>SUBSTRUCTURE
     1 <0>         1 GROUP 0 A     ****
