@<TRIPOS>MOLECULE
AlkEthOH_r990
   13    13     1     0     0
SMALL
USER_CHARGES

@<TRIPOS>ATOM
      1 C1          0.1610    0.8687    0.8236 CT        1 <0>       -0.13802
      2 C2         -0.6009    1.2581   -0.4391 CT        1 <0>        0.11274
      3 C3          0.5693   -0.3769    0.0292 CT        1 <0>        0.12405
      4 C4          1.9992   -0.4413   -0.4649 CT        1 <0>       -0.10443
      5 O1         -0.3426   -0.0302   -1.0453 OS        1 <0>       -0.42730
      6 H1          0.9821    1.5371    1.0940 HC        1 <0>        0.06064
      7 H2         -0.4731    0.6866    1.6957 HC        1 <0>        0.06064
      8 H3         -1.6709    1.4358   -0.3031 H1        1 <0>        0.05380
      9 H4         -0.1574    2.0688   -1.0248 H1        1 <0>        0.05380
     10 H5          0.2602   -1.3182    0.5002 H1        1 <0>        0.06623
     11 H6          2.2859    0.5057   -0.9299 HC        1 <0>        0.04595
     12 H7          2.1124   -1.2384   -1.2045 HC        1 <0>        0.04595
     13 H8          2.6819   -0.6399    0.3656 HC        1 <0>        0.04595
@<TRIPOS>BOND
     1    1    2 1
     2    1    3 1
     3    2    5 1
     4    3    4 1
     5    3    5 1
     6    1    6 1
     7    1    7 1
     8    2    8 1
     9    2    9 1
    10    3   10 1
    11    4   11 1
    12    4   12 1
    13    4   13 1
@<TRIPOS>SUBSTRUCTURE
     1 <0>         1 GROUP 0 A     ****
