@<TRIPOS>MOLECULE
AlkEthOH_c1165
   23    22     1     0     0
SMALL
USER_CHARGES

@<TRIPOS>ATOM
      1 C1         -0.7415   -3.7818    0.8651 CT        1 <0>       -0.09751
      2 C2         -0.6230    0.6902   -1.7047 CT        1 <0>       -0.11985
      3 C3          0.9817    1.9838   -0.2817 CT        1 <0>       -0.11985
      4 C4         -0.3513   -2.4024    1.3516 CT        1 <0>        0.12947
      5 C5         -0.0086   -0.1674    0.6282 CT        1 <0>        0.34575
      6 C6          0.4681    0.5847   -0.6335 CT        1 <0>        0.15709
      7 O1         -1.1084    0.5323    1.2034 OH        1 <0>       -0.63265
      8 O2          1.5710   -0.1349   -1.1945 OH        1 <0>       -0.59765
      9 O3         -0.3680   -1.5020    0.2524 OS        1 <0>       -0.43511
     10 H1         -1.7472   -3.7741    0.4356 HC        1 <0>        0.04777
     11 H2         -0.0360   -4.1377    0.1071 HC        1 <0>        0.04777
     12 H3         -0.7147   -4.5032    1.6885 HC        1 <0>        0.04777
     13 H4         -1.0025   -0.3039   -1.9688 HC        1 <0>        0.04966
     14 H5         -0.2527    1.1703   -2.6160 HC        1 <0>        0.04966
     15 H6         -1.4869    1.2563   -1.3397 HC        1 <0>        0.04966
     16 H7          1.7639    1.9289    0.4841 HC        1 <0>        0.04966
     17 H8          1.4405    2.4610   -1.1555 HC        1 <0>        0.04966
     18 H9          0.1823    2.6355    0.0849 HC        1 <0>        0.04966
     19 H10         0.6553   -2.4171    1.7800 H1        1 <0>        0.02662
     20 H11        -1.0577   -2.0480    2.1083 H1        1 <0>        0.02662
     21 H12         0.8156   -0.2080    1.3528 H2        1 <0>        0.05240
     22 H13        -1.3849    0.0365    1.9925 HO        1 <0>        0.41875
     23 H14         1.8678    0.3791   -1.9592 HO        1 <0>        0.40465
@<TRIPOS>BOND
     1    1    4 1
     2    2    6 1
     3    3    6 1
     4    4    9 1
     5    5    6 1
     6    5    7 1
     7    5    9 1
     8    6    8 1
     9    1   10 1
    10    1   11 1
    11    1   12 1
    12    2   13 1
    13    2   14 1
    14    2   15 1
    15    3   16 1
    16    3   17 1
    17    3   18 1
    18    4   19 1
    19    4   20 1
    20    5   21 1
    21    7   22 1
    22    8   23 1
@<TRIPOS>SUBSTRUCTURE
     1 <0>         1 GROUP 0 A     ****
