@<TRIPOS>MOLECULE
AlkEthOH_c376
   33    32     1     0     0
SMALL
USER_CHARGES

@<TRIPOS>ATOM
      1 C1          0.6852    2.7880   -1.0559 CT        1 <0>       -0.09138
      2 C2         -1.4482    3.0622    0.2018 CT        1 <0>       -0.09138
      3 C3         -1.5629   -3.2341    1.1254 CT        1 <0>       -0.13094
      4 C4          1.2876   -0.5009   -1.2987 CT        1 <0>       -0.08700
      5 C5          1.9561    0.2857    0.9786 CT        1 <0>       -0.08700
      6 C6         -0.4084    0.7802    0.1368 CT        1 <0>       -0.06509
      7 C7          0.3069   -1.5789    0.7876 CT        1 <0>       -0.07129
      8 C8         -0.1166    2.2992    0.1478 CT        1 <0>       -0.06268
      9 C9         -0.8728   -2.3109    0.1260 CT        1 <0>        0.14138
     10 C10         0.7770   -0.2338    0.1293 CT        1 <0>       -0.04166
     11 O1         -0.4059   -3.1048   -0.9587 OH        1 <0>       -0.60291
     12 H1          0.1772    2.5539   -1.9972 HC        1 <0>        0.03291
     13 H2          0.8316    3.8731   -1.0146 HC        1 <0>        0.03291
     14 H3          1.6827    2.3438   -1.0750 HC        1 <0>        0.03291
     15 H4         -2.0607    2.8557   -0.6826 HC        1 <0>        0.03291
     16 H5         -2.0251    2.7791    1.0887 HC        1 <0>        0.03291
     17 H6         -1.2772    4.1430    0.2515 HC        1 <0>        0.03291
     18 H7         -0.8635   -3.9663    1.5398 HC        1 <0>        0.04160
     19 H8         -2.3955   -3.7687    0.6551 HC        1 <0>        0.04160
     20 H9         -1.9884   -2.6549    1.9523 HC        1 <0>        0.04160
     21 H10         0.4919   -0.8733   -1.9516 HC        1 <0>        0.03622
     22 H11         1.6979    0.3965   -1.7672 HC        1 <0>        0.03622
     23 H12         2.0965   -1.2408   -1.2949 HC        1 <0>        0.03622
     24 H13         1.6567    0.4956    2.0103 HC        1 <0>        0.03622
     25 H14         2.7736   -0.4435    1.0068 HC        1 <0>        0.03622
     26 H15         2.3569    1.2191    0.5663 HC        1 <0>        0.03622
     27 H16        -1.0684    0.5640   -0.7141 HC        1 <0>        0.03590
     28 H17        -1.0087    0.5729    1.0345 HC        1 <0>        0.03590
     29 H18         1.1653   -2.2647    0.8193 HC        1 <0>        0.05108
     30 H19         0.0398   -1.3701    1.8328 HC        1 <0>        0.05108
     31 H20         0.4333    2.5573    1.0605 HC        1 <0>        0.04656
     32 H21        -1.6069   -1.5981   -0.2613 H1        1 <0>        0.03422
     33 H22        -1.1861   -3.5306   -1.3481 HO        1 <0>        0.39563
@<TRIPOS>BOND
     1    1    8 1
     2    2    8 1
     3    3    9 1
     4    4   10 1
     5    5   10 1
     6    6    8 1
     7    6   10 1
     8    7    9 1
     9    7   10 1
    10    9   11 1
    11    1   12 1
    12    1   13 1
    13    1   14 1
    14    2   15 1
    15    2   16 1
    16    2   17 1
    17    3   18 1
    18    3   19 1
    19    3   20 1
    20    4   21 1
    21    4   22 1
    22    4   23 1
    23    5   24 1
    24    5   25 1
    25    5   26 1
    26    6   27 1
    27    6   28 1
    28    7   29 1
    29    7   30 1
    30    8   31 1
    31    9   32 1
    32   11   33 1
@<TRIPOS>SUBSTRUCTURE
     1 <0>         1 GROUP 0 A     ****
