@<TRIPOS>MOLECULE
AlkEthOH_r486
   27    27     1     0     0
SMALL
USER_CHARGES

@<TRIPOS>ATOM
      1 C1         -1.7309    0.3907    1.3005 CT        1 <0>       -0.09130
      2 C2         -0.7867   -0.8173    1.2368 CT        1 <0>       -0.09899
      3 C3         -1.6689    1.3540    0.1193 CT        1 <0>        0.12624
      4 C4         -0.5789    0.6995   -1.9050 CT        1 <0>        0.09480
      5 C5          0.4991   -0.2469   -1.3817 CT        1 <0>        0.30387
      6 C6          0.7181   -0.5162    1.0349 CT        1 <0>        0.16569
      7 C7          1.2523    0.3269    2.2038 CT        1 <0>       -0.10363
      8 C8          1.5200   -1.8280    0.9904 CT        1 <0>       -0.10363
      9 O1         -1.7666    0.6513   -1.1163 OS        1 <0>       -0.41484
     10 O2          0.9884    0.2554   -0.1422 OS        1 <0>       -0.46181
     11 O3          1.5541   -0.2694   -2.3405 OH        1 <0>       -0.60579
     12 H1         -2.7521   -0.0080    1.3610 HC        1 <0>        0.04595
     13 H2         -1.5679    0.9494    2.2291 HC        1 <0>        0.04595
     14 H3         -0.9130   -1.3881    2.1669 HC        1 <0>        0.05059
     15 H4         -1.1469   -1.4813    0.4419 HC        1 <0>        0.05059
     16 H5         -2.5310    2.0282    0.1745 H1        1 <0>        0.04949
     17 H6         -0.7791    1.9917    0.1697 H1        1 <0>        0.04949
     18 H7         -0.2135    1.7317   -1.9758 H1        1 <0>        0.05992
     19 H8         -0.8564    0.4010   -2.9224 H1        1 <0>        0.05992
     20 H9          0.0959   -1.2606   -1.3022 H2        1 <0>        0.08685
     21 H10         2.3073    0.5295    2.0480 HC        1 <0>        0.04565
     22 H11         1.1198   -0.2206    3.1317 HC        1 <0>        0.04565
     23 H12         0.7047    1.2629    2.2515 HC        1 <0>        0.04565
     24 H13         2.5715   -1.6004    0.8486 HC        1 <0>        0.04565
     25 H14         1.1640   -2.4376    0.1664 HC        1 <0>        0.04565
     26 H15         1.3848   -2.3623    1.9252 HC        1 <0>        0.04565
     27 H16         1.8792    0.6411   -2.4140 HO        1 <0>        0.41674
@<TRIPOS>BOND
     1    1    2 1
     2    1    3 1
     3    2    6 1
     4    3    9 1
     5    4    5 1
     6    4    9 1
     7    5   10 1
     8    5   11 1
     9    6    7 1
    10    6    8 1
    11    6   10 1
    12    1   12 1
    13    1   13 1
    14    2   14 1
    15    2   15 1
    16    3   16 1
    17    3   17 1
    18    4   18 1
    19    4   19 1
    20    5   20 1
    21    7   21 1
    22    7   22 1
    23    7   23 1
    24    8   24 1
    25    8   25 1
    26    8   26 1
    27   11   27 1
@<TRIPOS>SUBSTRUCTURE
     1 <0>         1 GROUP 0 A     ****
