@<TRIPOS>MOLECULE
AlkEthOH_r946
   25    25     1     0     0
SMALL
USER_CHARGES

@<TRIPOS>ATOM
      1 C1          0.0839    1.5303   -0.7917 CT        1 <0>       -0.06939
      2 C2          1.5091    1.0595   -1.1076 CT        1 <0>       -0.09857
      3 C3         -0.3661    1.2625    0.6508 CT        1 <0>       -0.07406
      4 C4         -0.9069   -1.2397    0.1332 CT        1 <0>       -0.10756
      5 C5          1.7300   -0.4462   -1.0101 CT        1 <0>        0.13078
      6 C6          0.4675   -1.7893    0.5158 CT        1 <0>        0.13450
      7 C7         -1.3148    0.0610    0.8483 CT        1 <0>       -0.05616
      8 C8         -2.7432    0.4377    0.4291 CT        1 <0>       -0.09321
      9 O1          1.5404   -0.8758    0.3323 OS        1 <0>       -0.41999
     10 H1          0.0689    2.6171   -0.9479 HC        1 <0>        0.03648
     11 H2         -0.6207    1.1157   -1.5199 HC        1 <0>        0.03648
     12 H3          1.7672    1.3866   -2.1217 HC        1 <0>        0.04535
     13 H4          2.2003    1.5675   -0.4231 HC        1 <0>        0.04535
     14 H5          0.5051    1.1579    1.3085 HC        1 <0>        0.04785
     15 H6         -0.8803    2.1615    1.0171 HC        1 <0>        0.04785
     16 H7         -0.9639   -1.0942   -0.9511 HC        1 <0>        0.04479
     17 H8         -1.6478   -2.0166    0.3635 HC        1 <0>        0.04479
     18 H9          1.1039   -0.9914   -1.7249 H1        1 <0>        0.03852
     19 H10         2.7714   -0.6648   -1.2708 H1        1 <0>        0.03852
     20 H11         0.4619   -2.0649    1.5760 H1        1 <0>        0.04284
     21 H12         0.6783   -2.7051   -0.0491 H1        1 <0>        0.04284
     22 H13        -1.3482   -0.1458    1.9265 HC        1 <0>        0.04369
     23 H14        -2.7621    0.6526   -0.6353 HC        1 <0>        0.03277
     24 H15        -3.0617    1.3162    0.9825 HC        1 <0>        0.03277
     25 H16        -3.4125   -0.3899    0.6445 HC        1 <0>        0.03277
@<TRIPOS>BOND
     1    1    2 1
     2    1    3 1
     3    2    5 1
     4    3    7 1
     5    4    6 1
     6    4    7 1
     7    5    9 1
     8    6    9 1
     9    7    8 1
    10    1   10 1
    11    1   11 1
    12    2   12 1
    13    2   13 1
    14    3   14 1
    15    3   15 1
    16    4   16 1
    17    4   17 1
    18    5   18 1
    19    5   19 1
    20    6   20 1
    21    6   21 1
    22    7   22 1
    23    8   23 1
    24    8   24 1
    25    8   25 1
@<TRIPOS>SUBSTRUCTURE
     1 <0>         1 GROUP 0 A     ****
