@<TRIPOS>MOLECULE
AlkEthOH_r312
   26    26     1     0     0
SMALL
USER_CHARGES

@<TRIPOS>ATOM
      1 C1          1.4198    0.7443   -1.0198 CT        1 <0>       -0.07096
      2 C2          0.0527    1.4240   -1.0878 CT        1 <0>       -0.10252
      3 C3          1.7311    0.2507    0.3927 CT        1 <0>       -0.10252
      4 C4         -0.7502   -0.0157    0.8381 CT        1 <0>       -0.05262
      5 C5         -1.0744    0.5184   -0.5717 CT        1 <0>        0.15497
      6 C6          0.6382   -0.6790    0.9390 CT        1 <0>        0.15497
      7 C7         -2.4033    1.2784   -0.5643 CT        1 <0>       -0.12401
      8 C8          0.9448   -1.0624    2.3889 CT        1 <0>       -0.12401
      9 O1         -1.2126   -0.5769   -1.4807 OH        1 <0>       -0.57204
     10 O2          0.6539   -1.8817    0.1656 OH        1 <0>       -0.57204
     11 H1          1.4550   -0.0949   -1.7247 HC        1 <0>        0.04831
     12 H2          2.1944    1.4523   -1.3367 HC        1 <0>        0.04831
     13 H3          0.0865    2.3508   -0.5009 HC        1 <0>        0.04214
     14 H4         -0.1384    1.7058   -2.1308 HC        1 <0>        0.04214
     15 H5          2.6942   -0.2743    0.3678 HC        1 <0>        0.04214
     16 H6          1.8498    1.1180    1.0545 HC        1 <0>        0.04214
     17 H7         -0.8058    0.8125    1.5569 HC        1 <0>        0.05991
     18 H8         -1.5144   -0.7515    1.1221 HC        1 <0>        0.05991
     19 H9         -3.1943    0.6284   -0.1974 HC        1 <0>        0.04119
     20 H10        -2.6444    1.6031   -1.5739 HC        1 <0>        0.04119
     21 H11        -2.3233    2.1483    0.0837 HC        1 <0>        0.04119
     22 H12         0.1651   -1.7204    2.7656 HC        1 <0>        0.04119
     23 H13         0.9862   -0.1658    3.0030 HC        1 <0>        0.04119
     24 H14         1.9025   -1.5755    2.4365 HC        1 <0>        0.04119
     25 H15        -1.4300   -0.1897   -2.3413 HO        1 <0>        0.38932
     26 H16         1.5369   -2.2637    0.2756 HO        1 <0>        0.38932
@<TRIPOS>BOND
     1    1    2 1
     2    1    3 1
     3    2    5 1
     4    3    6 1
     5    4    5 1
     6    4    6 1
     7    5    7 1
     8    5    9 1
     9    6    8 1
    10    6   10 1
    11    1   11 1
    12    1   12 1
    13    2   13 1
    14    2   14 1
    15    3   15 1
    16    3   16 1
    17    4   17 1
    18    4   18 1
    19    7   19 1
    20    7   20 1
    21    7   21 1
    22    8   22 1
    23    8   23 1
    24    8   24 1
    25    9   25 1
    26   10   26 1
@<TRIPOS>SUBSTRUCTURE
     1 <0>         1 GROUP 0 A     ****
