@<TRIPOS>MOLECULE
AlkEthOH_r212
   25    25     1     0     0
SMALL
USER_CHARGES

@<TRIPOS>ATOM
      1 C1         -1.3209   -0.4747   -2.0424 CT        1 <0>       -0.11293
      2 C2         -2.0495    0.5283   -1.1416 CT        1 <0>       -0.10236
      3 C3         -0.7437   -1.7060   -1.3373 CT        1 <0>        0.13526
      4 C4         -1.1307    1.5304   -0.4331 CT        1 <0>        0.13303
      5 C5          0.9361   -0.5300   -0.1121 CT        1 <0>        0.32681
      6 C6          0.6418    0.5661    0.9293 CT        1 <0>        0.34389
      7 C7          0.7783    0.0427    2.3635 CT        1 <0>       -0.10183
      8 O1         -0.1522   -1.4480   -0.0731 OS        1 <0>       -0.43756
      9 O2         -0.7088    1.0433    0.8352 OS        1 <0>       -0.44479
     10 O3          2.1632   -1.1848    0.2018 OH        1 <0>       -0.60411
     11 O4          1.5866    1.6326    0.8097 OH        1 <0>       -0.61869
     12 H1         -2.0196   -0.8343   -2.8087 HC        1 <0>        0.04632
     13 H2         -0.5294    0.0459   -2.5945 HC        1 <0>        0.04632
     14 H3         -2.7185    1.1070   -1.7913 HC        1 <0>        0.05745
     15 H4         -2.6781   -0.0034   -0.4182 HC        1 <0>        0.05745
     16 H5         -1.5545   -2.4207   -1.1579 H1        1 <0>        0.04734
     17 H6         -0.0165   -2.2103   -1.9845 H1        1 <0>        0.04734
     18 H7         -0.2933    1.8550   -1.0604 H1        1 <0>        0.05085
     19 H8         -1.7224    2.4276   -0.2178 H1        1 <0>        0.05085
     20 H9          1.0724   -0.0783   -1.1000 H2        1 <0>        0.05881
     21 H10         0.5630    0.8450    3.0636 HC        1 <0>        0.06117
     22 H11         1.7915   -0.3151    2.5232 HC        1 <0>        0.06117
     23 H12         0.0772   -0.7723    2.5196 HC        1 <0>        0.06117
     24 H13         2.2977   -1.8598   -0.4811 HO        1 <0>        0.41934
     25 H14         1.3480    2.2828    1.4862 HO        1 <0>        0.41770
@<TRIPOS>BOND
     1    1    2 1
     2    1    3 1
     3    2    4 1
     4    3    8 1
     5    4    9 1
     6    5    6 1
     7    5    8 1
     8    5   10 1
     9    6    7 1
    10    6    9 1
    11    6   11 1
    12    1   12 1
    13    1   13 1
    14    2   14 1
    15    2   15 1
    16    3   16 1
    17    3   17 1
    18    4   18 1
    19    4   19 1
    20    5   20 1
    21    7   21 1
    22    7   22 1
    23    7   23 1
    24   10   24 1
    25   11   25 1
@<TRIPOS>SUBSTRUCTURE
     1 <0>         1 GROUP 0 A     ****
