@<TRIPOS>MOLECULE
AlkEthOH_r666
   22    22     1     0     0
SMALL
USER_CHARGES

@<TRIPOS>ATOM
      1 C1         -0.8806   -0.0545    2.0820 CT        1 <0>        0.10906
      2 C2          0.1006    1.1025    1.9304 CT        1 <0>        0.10392
      3 C3         -0.4823   -1.2385    0.0365 CT        1 <0>        0.12320
      4 C4          1.4328    1.0939   -0.0449 CT        1 <0>        0.33832
      5 C5         -0.0853   -0.4310   -1.2069 CT        1 <0>        0.33378
      6 C6          0.9935   -1.1644   -2.0080 CT        1 <0>       -0.15085
      7 O1         -1.4090   -0.4889    0.8286 OS        1 <0>       -0.39070
      8 O2          1.2915    0.6377    1.2986 OS        1 <0>       -0.46308
      9 O3          0.3022    0.9058   -0.8902 OS        1 <0>       -0.47640
     10 O4         -1.2634   -0.3625   -2.0262 OH        1 <0>       -0.57901
     11 H1         -0.4230   -0.9047    2.6013 H1        1 <0>        0.05309
     12 H2         -1.7320    0.2806    2.6833 H1        1 <0>        0.05309
     13 H3         -0.3489    1.9391    1.3829 H1        1 <0>        0.05804
     14 H4          0.3838    1.4628    2.9246 H1        1 <0>        0.05804
     15 H5         -1.0048   -2.1528   -0.2691 H1        1 <0>        0.06488
     16 H6          0.3888   -1.5516    0.6231 H1        1 <0>        0.06488
     17 H7          1.6382    2.1698   -0.0138 H2        1 <0>        0.06269
     18 H8          2.3198    0.6238   -0.4795 H2        1 <0>        0.06269
     19 H9          1.2610   -0.5774   -2.8836 HC        1 <0>        0.05244
     20 H10         0.6167   -2.1336   -2.3265 HC        1 <0>        0.05244
     21 H11         1.8754   -1.3075   -1.3879 HC        1 <0>        0.05244
     22 H12        -1.0125    0.1462   -2.8088 HO        1 <0>        0.41704
@<TRIPOS>BOND
     1    1    2 1
     2    1    7 1
     3    2    8 1
     4    3    5 1
     5    3    7 1
     6    4    8 1
     7    4    9 1
     8    5    6 1
     9    5    9 1
    10    5   10 1
    11    1   11 1
    12    1   12 1
    13    2   13 1
    14    2   14 1
    15    3   15 1
    16    3   16 1
    17    4   17 1
    18    4   18 1
    19    6   19 1
    20    6   20 1
    21    6   21 1
    22   10   22 1
@<TRIPOS>SUBSTRUCTURE
     1 <0>         1 GROUP 0 A     ****
