@<TRIPOS>MOLECULE
AlkEthOH_c1097
   22    21     1     0     0
SMALL
USER_CHARGES

@<TRIPOS>ATOM
      1 C1         -0.4474    0.8277   -0.8199 CT        1 <0>       -0.09155
      2 C2         -0.6714   -2.8371   -4.2817 CT        1 <0>       -0.12405
      3 C3          0.0366    0.3647   -2.1852 CT        1 <0>       -0.08064
      4 C4         -0.5207   -1.0174   -2.5371 CT        1 <0>       -0.07429
      5 C5          0.3031   -0.6203   -6.0959 CT        1 <0>        0.32889
      6 C6         -0.0767   -1.4806   -3.9284 CT        1 <0>        0.14493
      7 O1         -0.0135    0.3841   -7.0489 OH        1 <0>       -0.58099
      8 O2         -0.4824   -0.5335   -4.9130 OS        1 <0>       -0.41494
      9 H1         -0.1532    0.1080   -0.0495 HC        1 <0>        0.03216
     10 H2         -1.5380    0.9192   -0.8004 HC        1 <0>        0.03216
     11 H3         -0.0159    1.7995   -0.5597 HC        1 <0>        0.03216
     12 H4         -1.7663   -2.8070   -4.2517 HC        1 <0>        0.04368
     13 H5         -0.3926   -3.1214   -5.3021 HC        1 <0>        0.04368
     14 H6         -0.3234   -3.6149   -3.5951 HC        1 <0>        0.04368
     15 H7         -0.2689    1.0993   -2.9388 HC        1 <0>        0.04701
     16 H8          1.1324    0.3343   -2.1862 HC        1 <0>        0.04701
     17 H9         -0.1919   -1.7458   -1.7860 HC        1 <0>        0.04901
     18 H10        -1.6164   -0.9734   -2.4955 HC        1 <0>        0.04901
     19 H11         0.2274   -1.6136   -6.5533 H2        1 <0>        0.01756
     20 H12         1.3453   -0.4695   -5.8003 H2        1 <0>        0.01756
     21 H13         1.0160   -1.5470   -3.9681 H1        1 <0>        0.03211
     22 H14         0.5677    0.2465   -7.8158 HO        1 <0>        0.40585
@<TRIPOS>BOND
     1    1    3 1
     2    2    6 1
     3    3    4 1
     4    4    6 1
     5    5    7 1
     6    5    8 1
     7    6    8 1
     8    1    9 1
     9    1   10 1
    10    1   11 1
    11    2   12 1
    12    2   13 1
    13    2   14 1
    14    3   15 1
    15    3   16 1
    16    4   17 1
    17    4   18 1
    18    5   19 1
    19    5   20 1
    20    6   21 1
    21    7   22 1
@<TRIPOS>SUBSTRUCTURE
     1 <0>         1 GROUP 0 A     ****
