@<TRIPOS>MOLECULE
AlkEthOH_c316
   26    25     1     0     0
SMALL
USER_CHARGES

@<TRIPOS>ATOM
      1 C1          0.0432    0.6217   -2.0925 CT        1 <0>       -0.09056
      2 C2          2.0954    1.3330   -0.8468 CT        1 <0>       -0.09056
      3 C3         -0.2622   -2.2956    0.2409 CT        1 <0>       -0.09056
      4 C4         -1.6067   -0.9796    1.8672 CT        1 <0>       -0.09056
      5 C5         -0.4691    1.5805    0.8462 CT        1 <0>       -0.09169
      6 C6          0.9437    0.3198   -0.8916 CT        1 <0>       -0.06360
      7 C7         -0.8811   -0.9188    0.5146 CT        1 <0>       -0.06360
      8 C8          0.1743    0.2355    0.4654 CT        1 <0>       -0.05127
      9 H1         -0.4695    1.5824   -1.9834 HC        1 <0>        0.03296
     10 H2          0.6362    0.6682   -3.0129 HC        1 <0>        0.03296
     11 H3         -0.7121   -0.1561   -2.2347 HC        1 <0>        0.03296
     12 H4          1.7196    2.3460   -0.6692 HC        1 <0>        0.03296
     13 H5          2.6790    1.3365   -1.7723 HC        1 <0>        0.03296
     14 H6          2.7844    1.0882   -0.0306 HC        1 <0>        0.03296
     15 H7          0.5122   -2.5309    0.9795 HC        1 <0>        0.03296
     16 H8         -1.0080   -3.0928    0.3077 HC        1 <0>        0.03296
     17 H9          0.1976   -2.3321   -0.7524 HC        1 <0>        0.03296
     18 H10        -0.9088   -1.1583    2.6903 HC        1 <0>        0.03296
     19 H11        -2.3628   -1.7717    1.8758 HC        1 <0>        0.03296
     20 H12        -2.1099   -0.0308    2.0842 HC        1 <0>        0.03296
     21 H13        -1.2369    1.8845    0.1299 HC        1 <0>        0.03385
     22 H14         0.2716    2.3861    0.8501 HC        1 <0>        0.03385
     23 H15        -0.9256    1.5391    1.8402 HC        1 <0>        0.03385
     24 H16         1.4199   -0.6511   -1.0720 HC        1 <0>        0.04615
     25 H17        -1.6451   -0.7382   -0.2516 HC        1 <0>        0.04615
     26 H18         0.9261    0.0165    1.2375 HC        1 <0>        0.04303
@<TRIPOS>BOND
     1    1    6 1
     2    2    6 1
     3    3    7 1
     4    4    7 1
     5    5    8 1
     6    6    8 1
     7    7    8 1
     8    1    9 1
     9    1   10 1
    10    1   11 1
    11    2   12 1
    12    2   13 1
    13    2   14 1
    14    3   15 1
    15    3   16 1
    16    3   17 1
    17    4   18 1
    18    4   19 1
    19    4   20 1
    20    5   21 1
    21    5   22 1
    22    5   23 1
    23    6   24 1
    24    7   25 1
    25    8   26 1
@<TRIPOS>SUBSTRUCTURE
     1 <0>         1 GROUP 0 A     ****
