@<TRIPOS>MOLECULE
AlkEthOH_c394
   31    30     1     0     0
SMALL
USER_CHARGES

@<TRIPOS>ATOM
      1 C1         -2.1051    0.0700    1.0187 CT        1 <0>       -0.09234
      2 C2         -1.7473   -1.8056    2.6280 CT        1 <0>       -0.09234
      3 C3          0.9633    3.2128   -1.5701 CT        1 <0>       -0.13420
      4 C4          2.1524   -0.8711   -0.4200 CT        1 <0>       -0.12820
      5 C5          0.1579   -1.0167    1.0901 CT        1 <0>       -0.10024
      6 C6          0.4388    1.0185   -0.4440 CT        1 <0>       -0.06671
      7 C7         -1.3615   -1.2499    1.2577 CT        1 <0>       -0.05934
      8 C8          1.2706    1.7202   -1.5324 CT        1 <0>        0.14197
      9 C9          0.6665   -0.5045   -0.2846 CT        1 <0>        0.16584
     10 O1          0.9714    1.1911   -2.8194 OH        1 <0>       -0.58267
     11 O2         -0.0308   -1.1870   -1.3276 OH        1 <0>       -0.57997
     12 H1         -1.8131    0.8294    1.7521 HC        1 <0>        0.03335
     13 H2         -3.1884   -0.0738    1.0929 HC        1 <0>        0.03335
     14 H3         -1.8909    0.4626    0.0190 HC        1 <0>        0.03335
     15 H4         -1.4215   -1.1307    3.4273 HC        1 <0>        0.03335
     16 H5         -2.8312   -1.9108    2.7261 HC        1 <0>        0.03335
     17 H6         -1.2865   -2.7832    2.8051 HC        1 <0>        0.03335
     18 H7         -0.1045    3.3786   -1.7508 HC        1 <0>        0.04240
     19 H8          1.1960    3.6863   -0.6097 HC        1 <0>        0.04240
     20 H9          1.5323    3.7166   -2.3574 HC        1 <0>        0.04240
     21 H10         2.5515   -0.5256   -1.3811 HC        1 <0>        0.04377
     22 H11         2.3078   -1.9528   -0.3544 HC        1 <0>        0.04377
     23 H12         2.7605   -0.3779    0.3457 HC        1 <0>        0.04377
     24 H13         0.4719   -0.2976    1.8594 HC        1 <0>        0.04025
     25 H14         0.6696   -1.9616    1.3214 HC        1 <0>        0.04025
     26 H15        -0.6161    1.1821   -0.6978 HC        1 <0>        0.06058
     27 H16         0.6299    1.5108    0.5181 HC        1 <0>        0.06058
     28 H17        -1.7048   -1.9533    0.4903 HC        1 <0>        0.05561
     29 H18         2.3425    1.5952   -1.3506 H1        1 <0>        0.02724
     30 H19         1.5390    1.6599   -3.4516 HO        1 <0>        0.39205
     31 H20         0.1251   -2.1329   -1.1869 HO        1 <0>        0.39303
@<TRIPOS>BOND
     1    1    7 1
     2    2    7 1
     3    3    8 1
     4    4    9 1
     5    5    7 1
     6    5    9 1
     7    6    8 1
     8    6    9 1
     9    8   10 1
    10    9   11 1
    11    1   12 1
    12    1   13 1
    13    1   14 1
    14    2   15 1
    15    2   16 1
    16    2   17 1
    17    3   18 1
    18    3   19 1
    19    3   20 1
    20    4   21 1
    21    4   22 1
    22    4   23 1
    23    5   24 1
    24    5   25 1
    25    6   26 1
    26    6   27 1
    27    7   28 1
    28    8   29 1
    29   10   30 1
    30   11   31 1
@<TRIPOS>SUBSTRUCTURE
     1 <0>         1 GROUP 0 A     ****
