@<TRIPOS>MOLECULE
AlkEthOH_c433
   33    32     1     0     0
SMALL
USER_CHARGES

@<TRIPOS>ATOM
      1 C1         -2.5861   -0.9870   -1.8117 CT        1 <0>       -0.09053
      2 C2         -4.0798   -0.6310    0.1638 CT        1 <0>       -0.09053
      3 C3          3.0041    1.7689    1.2011 CT        1 <0>       -0.08836
      4 C4          2.2750    1.3075   -1.1506 CT        1 <0>       -0.08836
      5 C5          2.8721   -0.5806    0.3669 CT        1 <0>       -0.08836
      6 C6         -1.6471   -0.0321    0.3626 CT        1 <0>       -0.10441
      7 C7          0.7405    0.6589    0.8074 CT        1 <0>       -0.09929
      8 C8         -2.6620   -0.9975   -0.2846 CT        1 <0>       -0.06471
      9 C9         -0.1693   -0.3201    0.0413 CT        1 <0>        0.13779
     10 C10         2.2056    0.8098    0.3014 CT        1 <0>       -0.05035
     11 O1          0.1429   -1.6511    0.4380 OH        1 <0>       -0.59700
     12 H1         -2.7805    0.0176   -2.2032 HC        1 <0>        0.03353
     13 H2         -1.5968   -1.3003   -2.1623 HC        1 <0>        0.03353
     14 H3         -3.3326   -1.6543   -2.2526 HC        1 <0>        0.03353
     15 H4         -4.3396    0.3835   -0.1565 HC        1 <0>        0.03353
     16 H5         -4.1643   -0.6669    1.2551 HC        1 <0>        0.03353
     17 H6         -4.8207   -1.3200   -0.2562 HC        1 <0>        0.03353
     18 H7          2.9844    1.4553    2.2498 HC        1 <0>        0.03576
     19 H8          4.0518    1.8271    0.8857 HC        1 <0>        0.03576
     20 H9          2.5892    2.7829    1.1611 HC        1 <0>        0.03576
     21 H10         1.7146    0.6449   -1.8206 HC        1 <0>        0.03576
     22 H11         1.8478    2.3118   -1.2458 HC        1 <0>        0.03576
     23 H12         3.3042    1.3352   -1.5223 HC        1 <0>        0.03576
     24 H13         2.3411   -1.3070   -0.2591 HC        1 <0>        0.03576
     25 H14         2.8786   -0.9681    1.3920 HC        1 <0>        0.03576
     26 H15         3.9102   -0.5394    0.0176 HC        1 <0>        0.03576
     27 H16        -1.8860    0.9965    0.0626 HC        1 <0>        0.04205
     28 H17        -1.7824   -0.0859    1.4514 HC        1 <0>        0.04205
     29 H18         0.2742    1.6535    0.7893 HC        1 <0>        0.04285
     30 H19         0.7731    0.3469    1.8607 HC        1 <0>        0.04285
     31 H20        -2.4620   -2.0180    0.0636 HC        1 <0>        0.05759
     32 H21         0.0051   -0.2260   -1.0335 H1        1 <0>        0.07921
     33 H22        -0.0223   -1.7026    1.3927 HO        1 <0>        0.39449
@<TRIPOS>BOND
     1    1    8 1
     2    2    8 1
     3    3   10 1
     4    4   10 1
     5    5   10 1
     6    6    8 1
     7    6    9 1
     8    7    9 1
     9    7   10 1
    10    9   11 1
    11    1   12 1
    12    1   13 1
    13    1   14 1
    14    2   15 1
    15    2   16 1
    16    2   17 1
    17    3   18 1
    18    3   19 1
    19    3   20 1
    20    4   21 1
    21    4   22 1
    22    4   23 1
    23    5   24 1
    24    5   25 1
    25    5   26 1
    26    6   27 1
    27    6   28 1
    28    7   29 1
    29    7   30 1
    30    8   31 1
    31    9   32 1
    32   11   33 1
@<TRIPOS>SUBSTRUCTURE
     1 <0>         1 GROUP 0 A     ****
