@<TRIPOS>MOLECULE
AlkEthOH_r338
   28    28     1     0     0
SMALL
USER_CHARGES

@<TRIPOS>ATOM
      1 C1          0.7785   -0.7622   -0.1213 CT        1 <0>       -0.07379
      2 C2          1.5383   -0.5060   -1.4152 CT        1 <0>       -0.07197
      3 C3          0.1367   -2.1477   -0.1085 CT        1 <0>       -0.06958
      4 C4          2.5576   -1.6059   -1.7065 CT        1 <0>       -0.10331
      5 C5          1.1453   -3.3007   -0.3724 CT        1 <0>       -0.03094
      6 C6          1.9274   -3.0163   -1.7048 CT        1 <0>        0.16159
      7 C7          2.0928   -3.4376    0.8409 CT        1 <0>       -0.08708
      8 C8          0.3263   -4.6104   -0.4627 CT        1 <0>       -0.08708
      9 C9          3.0168   -4.0532   -2.0168 CT        1 <0>       -0.12130
     10 O1          0.9875   -3.0659   -2.7918 OH        1 <0>       -0.59863
     11 H1          1.4557   -0.6523    0.7333 HC        1 <0>        0.03763
     12 H2          0.0001    0.0001    0.0002 HC        1 <0>        0.03763
     13 H3          0.8271   -0.4317   -2.2470 HC        1 <0>        0.04227
     14 H4          2.0507    0.4611   -1.3550 HC        1 <0>        0.04227
     15 H5         -0.3648   -2.2965    0.8564 HC        1 <0>        0.04742
     16 H6         -0.6556   -2.1695   -0.8688 HC        1 <0>        0.04742
     17 H7          2.9991   -1.3980   -2.6900 HC        1 <0>        0.04193
     18 H8          3.3735   -1.5473   -0.9766 HC        1 <0>        0.04193
     19 H9          2.7920   -4.2418    0.6503 HC        1 <0>        0.03701
     20 H10         1.5040   -3.6586    1.7219 HC        1 <0>        0.03701
     21 H11         2.6267   -2.5055    0.9753 HC        1 <0>        0.03701
     22 H12         1.0038   -5.4340   -0.6466 HC        1 <0>        0.03701
     23 H13        -0.3828   -4.5234   -1.2756 HC        1 <0>        0.03701
     24 H14        -0.1966   -4.7605    0.4729 HC        1 <0>        0.03701
     25 H15         2.5786   -5.0464   -2.0167 HC        1 <0>        0.04208
     26 H16         3.7932   -3.9978   -1.2601 HC        1 <0>        0.04208
     27 H17         3.4437   -3.8437   -2.9927 HC        1 <0>        0.04208
     28 H18         1.5010   -2.8962   -3.5927 HO        1 <0>        0.39529
@<TRIPOS>BOND
     1    1    2 1
     2    1    3 1
     3    2    4 1
     4    3    5 1
     5    4    6 1
     6    5    6 1
     7    5    7 1
     8    5    8 1
     9    6    9 1
    10    6   10 1
    11    1   11 1
    12    1   12 1
    13    2   13 1
    14    2   14 1
    15    3   15 1
    16    3   16 1
    17    4   17 1
    18    4   18 1
    19    7   19 1
    20    7   20 1
    21    7   21 1
    22    8   22 1
    23    8   23 1
    24    8   24 1
    25    9   25 1
    26    9   26 1
    27    9   27 1
    28   10   28 1
@<TRIPOS>SUBSTRUCTURE
     1 <0>         1 GROUP 0 A     ****
