@<TRIPOS>MOLECULE
AlkEthOH_r802
   32    32     1     0     0
SMALL
USER_CHARGES

@<TRIPOS>ATOM
      1 C1          2.2195   -0.0949   -1.5856 CT        1 <0>       -0.13443
      2 C2         -1.5970    0.4658    0.2485 CT        1 <0>       -0.07352
      3 C3          2.3277   -0.9930   -0.3481 CT        1 <0>        0.13341
      4 C4          1.5757    1.2650   -1.3104 CT        1 <0>        0.14475
      5 C5          0.0418   -1.5523    0.1158 CT        1 <0>        0.13776
      6 C6         -0.4467    1.4582   -0.0047 CT        1 <0>        0.14535
      7 C7         -1.1963   -0.9374    0.8168 CT        1 <0>       -0.04892
      8 C8         -0.9766    2.8796   -0.1648 CT        1 <0>       -0.11605
      9 C9         -0.9410   -0.8159    2.3339 CT        1 <0>       -0.08716
     10 C10        -2.3919   -1.8899    0.6081 CT        1 <0>       -0.08716
     11 O1          1.2205   -0.8684    0.5315 OS        1 <0>       -0.42501
     12 O2          0.1644    1.0831   -1.2411 OS        1 <0>       -0.43123
     13 H1          3.2234    0.0424   -2.0031 HC        1 <0>        0.05331
     14 H2          1.6253   -0.6188   -2.3443 HC        1 <0>        0.05331
     15 H3         -2.3246    0.9184    0.9353 HC        1 <0>        0.04953
     16 H4         -2.1247    0.3128   -0.7036 HC        1 <0>        0.04953
     17 H5          2.4812   -2.0407   -0.6314 H1        1 <0>        0.04266
     18 H6          3.2101   -0.6850    0.2241 H1        1 <0>        0.04266
     19 H7          1.9935    1.7398   -0.4156 H1        1 <0>        0.03973
     20 H8          1.7673    1.9283   -2.1603 H1        1 <0>        0.03973
     21 H9          0.1585   -2.6055    0.3982 H1        1 <0>        0.03517
     22 H10        -0.0852   -1.5151   -0.9722 H1        1 <0>        0.03517
     23 H11         0.2629    1.4366    0.8290 H1        1 <0>        0.06166
     24 H12        -1.6854    2.9205   -0.9912 HC        1 <0>        0.03965
     25 H13        -0.1524    3.5619   -0.3698 HC        1 <0>        0.03965
     26 H14        -1.4787    3.1936    0.7497 HC        1 <0>        0.03965
     27 H15        -0.6640   -1.7879    2.7244 HC        1 <0>        0.03680
     28 H16        -1.8461   -0.4682    2.8175 HC        1 <0>        0.03680
     29 H17        -0.1378   -0.1083    2.5013 HC        1 <0>        0.03680
     30 H18        -2.1357   -2.8690    0.9952 HC        1 <0>        0.03680
     31 H19        -2.6093   -1.9576   -0.4512 HC        1 <0>        0.03680
     32 H20        -3.2527   -1.4979    1.1370 HC        1 <0>        0.03680
@<TRIPOS>BOND
     1    1    3 1
     2    1    4 1
     3    2    6 1
     4    2    7 1
     5    3   11 1
     6    4   12 1
     7    5    7 1
     8    5   11 1
     9    6    8 1
    10    6   12 1
    11    7    9 1
    12    7   10 1
    13    1   13 1
    14    1   14 1
    15    2   15 1
    16    2   16 1
    17    3   17 1
    18    3   18 1
    19    4   19 1
    20    4   20 1
    21    5   21 1
    22    5   22 1
    23    6   23 1
    24    8   24 1
    25    8   25 1
    26    8   26 1
    27    9   27 1
    28    9   28 1
    29    9   29 1
    30   10   30 1
    31   10   31 1
    32   10   32 1
@<TRIPOS>SUBSTRUCTURE
     1 <0>         1 GROUP 0 A     ****
