@<TRIPOS>MOLECULE
AlkEthOH_r1117
   18    18     1     0     0
SMALL
USER_CHARGES

@<TRIPOS>ATOM
      1 C1         -0.7185    1.4828   -0.4563 CT        1 <0>       -0.17491
      2 C2         -1.0717    0.2518   -1.2830 CT        1 <0>        0.13597
      3 C3          0.5705    1.2516    0.3307 CT        1 <0>        0.33739
      4 C4          0.1422   -1.0781    0.2288 CT        1 <0>        0.33031
      5 C5          0.0213   -2.3070    1.1143 CT        1 <0>       -0.08586
      6 O1         -1.1074   -0.8995   -0.4419 OS        1 <0>       -0.43997
      7 O2          0.4814    0.0301    1.0669 OS        1 <0>       -0.42811
      8 O3          1.6822    1.2683   -0.5595 OH        1 <0>       -0.62503
      9 H1         -0.6324    2.3584   -1.1078 HC        1 <0>        0.06408
     10 H2         -1.5315    1.6555    0.2595 HC        1 <0>        0.06408
     11 H3         -2.0604    0.3709   -1.7369 H1        1 <0>        0.05519
     12 H4         -0.3507    0.0894   -2.0924 H1        1 <0>        0.05519
     13 H5          0.7050    2.0681    1.0485 H2        1 <0>        0.07259
     14 H6          0.9380   -1.2495   -0.5074 H2        1 <0>        0.05933
     15 H7         -0.7654   -2.1608    1.8565 HC        1 <0>        0.05602
     16 H8          0.9633   -2.4912    1.6338 HC        1 <0>        0.05602
     17 H9         -0.2238   -3.1832    0.5115 HC        1 <0>        0.05602
     18 H10         1.6869    2.1421   -0.9806 HO        1 <0>        0.41169
@<TRIPOS>BOND
     1    1    2 1
     2    1    3 1
     3    2    6 1
     4    3    7 1
     5    3    8 1
     6    4    5 1
     7    4    6 1
     8    4    7 1
     9    1    9 1
    10    1   10 1
    11    2   11 1
    12    2   12 1
    13    3   13 1
    14    4   14 1
    15    5   15 1
    16    5   16 1
    17    5   17 1
    18    8   18 1
@<TRIPOS>SUBSTRUCTURE
     1 <0>         1 GROUP 0 A     ****
