@<TRIPOS>MOLECULE
AlkEthOH_r697
   27    27     1     0     0
SMALL
USER_CHARGES

@<TRIPOS>ATOM
      1 C1          2.0012    1.1222   -0.4484 CT        1 <0>       -0.07354
      2 C2          1.9186   -0.1458   -1.3087 CT        1 <0>       -0.07354
      3 C3          1.9915    0.8674    1.0647 CT        1 <0>       -0.08686
      4 C4          0.7449   -0.1641   -2.2975 CT        1 <0>       -0.08686
      5 C5          0.8221    0.0310    1.5794 CT        1 <0>        0.14694
      6 C6         -0.6311    0.0533   -1.6706 CT        1 <0>        0.14694
      7 C7         -1.3302   -0.3636    0.6087 CT        1 <0>        0.52924
      8 C8         -2.6768    0.3500    0.4123 CT        1 <0>       -0.11487
      9 O1         -0.4219    0.5992    1.1736 OS        1 <0>       -0.45997
     10 O2         -0.8612   -0.9019   -0.6388 OS        1 <0>       -0.45997
     11 O3         -1.5570   -1.4475    1.5254 OH        1 <0>       -0.61131
     12 H1          2.9396    1.6395   -0.6877 HC        1 <0>        0.04217
     13 H2          1.2112    1.8361   -0.7015 HC        1 <0>        0.04217
     14 H3          2.8434   -0.2242   -1.8953 HC        1 <0>        0.04217
     15 H4          1.8927   -1.0520   -0.6956 HC        1 <0>        0.04217
     16 H5          2.9299    0.3819    1.3579 HC        1 <0>        0.04469
     17 H6          1.9713    1.8448    1.5627 HC        1 <0>        0.04469
     18 H7          0.9072    0.5966   -3.0702 HC        1 <0>        0.04469
     19 H8          0.7540   -1.1383   -2.8020 HC        1 <0>        0.04469
     20 H9          0.9359   -1.0068    1.2509 H1        1 <0>        0.04591
     21 H10         0.8381    0.0211    2.6748 H1        1 <0>        0.04591
     22 H11        -0.7199    1.0845   -1.3171 H1        1 <0>        0.04591
     23 H12        -1.4033   -0.0917   -2.4341 H1        1 <0>        0.04591
     24 H13        -3.3967   -0.3433   -0.0146 HC        1 <0>        0.06038
     25 H14        -2.5461    1.1941   -0.2599 HC        1 <0>        0.06038
     26 H15        -3.0430    0.7056    1.3718 HC        1 <0>        0.06038
     27 H16        -2.2160   -2.0185    1.1067 HO        1 <0>        0.43158
@<TRIPOS>BOND
     1    1    2 1
     2    1    3 1
     3    2    4 1
     4    3    5 1
     5    4    6 1
     6    5    9 1
     7    6   10 1
     8    7    8 1
     9    7    9 1
    10    7   10 1
    11    7   11 1
    12    1   12 1
    13    1   13 1
    14    2   14 1
    15    2   15 1
    16    3   16 1
    17    3   17 1
    18    4   18 1
    19    4   19 1
    20    5   20 1
    21    5   21 1
    22    6   22 1
    23    6   23 1
    24    8   24 1
    25    8   25 1
    26    8   26 1
    27   11   27 1
@<TRIPOS>SUBSTRUCTURE
     1 <0>         1 GROUP 0 A     ****
