@<TRIPOS>MOLECULE
AlkEthOH_c911
   24    23     1     0     0
SMALL
USER_CHARGES

@<TRIPOS>ATOM
      1 C1         -1.0599   -0.2643    0.1554 CT        1 <0>       -0.09090
      2 C2         -4.0866    1.3324    1.6121 CT        1 <0>       -0.08962
      3 C3         -5.2809   -0.8596    1.4926 CT        1 <0>       -0.08962
      4 C4         -2.9101   -0.8097    3.5503 CT        1 <0>       -0.12246
      5 C5         -1.3616   -0.2858    1.6498 CT        1 <0>       -0.10615
      6 C6         -3.9325   -0.1541    1.2751 CT        1 <0>       -0.05198
      7 C7         -2.7545   -0.8529    2.0216 CT        1 <0>        0.15744
      8 O1         -2.7742   -2.2372    1.6374 OH        1 <0>       -0.59980
      9 H1         -1.7884    0.3382   -0.3943 HC        1 <0>        0.03763
     10 H2         -0.0727    0.1768   -0.0182 HC        1 <0>        0.03763
     11 H3         -1.0538   -1.2738   -0.2664 HC        1 <0>        0.03763
     12 H4         -4.2829    1.4872    2.6767 HC        1 <0>        0.03633
     13 H5         -3.1653    1.8761    1.3748 HC        1 <0>        0.03633
     14 H6         -4.8974    1.7958    1.0419 HC        1 <0>        0.03633
     15 H7         -5.5589   -0.8304    2.5522 HC        1 <0>        0.03633
     16 H8         -6.0842   -0.3718    0.9319 HC        1 <0>        0.03633
     17 H9         -5.2415   -1.9121    1.1948 HC        1 <0>        0.03633
     18 H10        -3.8820   -1.2012    3.8677 HC        1 <0>        0.04182
     19 H11        -2.1635   -1.4518    4.0331 HC        1 <0>        0.04182
     20 H12        -2.7886    0.2021    3.9478 HC        1 <0>        0.04182
     21 H13        -0.5884   -0.9075    2.1207 HC        1 <0>        0.04109
     22 H14        -1.2363    0.7241    2.0566 HC        1 <0>        0.04109
     23 H15        -3.7387   -0.2328    0.1971 HC        1 <0>        0.05818
     24 H16        -2.0289   -2.6493    2.0944 HO        1 <0>        0.39640
@<TRIPOS>BOND
     1    1    5 1
     2    2    6 1
     3    3    6 1
     4    4    7 1
     5    5    7 1
     6    6    7 1
     7    7    8 1
     8    1    9 1
     9    1   10 1
    10    1   11 1
    11    2   12 1
    12    2   13 1
    13    2   14 1
    14    3   15 1
    15    3   16 1
    16    3   17 1
    17    4   18 1
    18    4   19 1
    19    4   20 1
    20    5   21 1
    21    5   22 1
    22    6   23 1
    23    8   24 1
@<TRIPOS>SUBSTRUCTURE
     1 <0>         1 GROUP 0 A     ****
