@<TRIPOS>MOLECULE
AlkEthOH_c1053
   28    27     1     0     0
SMALL
USER_CHARGES

@<TRIPOS>ATOM
      1 C1         -0.1872    3.0892   -2.1483 CT        1 <0>       -0.09150
      2 C2          1.5638   -1.2196    2.8393 CT        1 <0>       -0.13308
      3 C3         -1.8447   -1.1469   -0.0159 CT        1 <0>       -0.12584
      4 C4          0.2701    1.7951   -1.4907 CT        1 <0>       -0.08026
      5 C5         -0.9242    0.9694   -0.9973 CT        1 <0>       -0.10695
      6 C6          0.3908   -0.2449    0.8297 CT        1 <0>       -0.06160
      7 C7          0.5483   -1.4809    1.7322 CT        1 <0>        0.14296
      8 C8         -0.5535   -0.4060   -0.3877 CT        1 <0>        0.16198
      9 O1          0.9937   -2.5907    0.9605 OH        1 <0>       -0.57786
     10 O2          0.1193   -1.1759   -1.3876 OH        1 <0>       -0.57643
     11 H1         -0.7788    3.6831   -1.4445 HC        1 <0>        0.03194
     12 H2          0.6693    3.6927   -2.4651 HC        1 <0>        0.03194
     13 H3         -0.8082    2.8848   -3.0263 HC        1 <0>        0.03194
     14 H4          2.5403   -0.9519    2.4210 HC        1 <0>        0.04203
     15 H5          1.2316   -0.4150    3.5023 HC        1 <0>        0.04203
     16 H6          1.7167   -2.1231    3.4393 HC        1 <0>        0.04203
     17 H7         -1.6331   -2.1287    0.4207 HC        1 <0>        0.04327
     18 H8         -2.4499   -1.3464   -0.9082 HC        1 <0>        0.04327
     19 H9         -2.4522   -0.5679    0.6869 HC        1 <0>        0.04327
     20 H10         0.8589    1.2187   -2.2127 HC        1 <0>        0.04690
     21 H11         0.9304    2.0469   -0.6544 HC        1 <0>        0.04690
     22 H12        -1.4903    1.5564   -0.2627 HC        1 <0>        0.03957
     23 H13        -1.5909    0.8057   -1.8548 HC        1 <0>        0.03957
     24 H14         0.0460    0.5965    1.4442 HC        1 <0>        0.05846
     25 H15         1.3914    0.0058    0.4541 HC        1 <0>        0.05846
     26 H16        -0.4107   -1.7444    2.1895 H1        1 <0>        0.02465
     27 H17         1.0542   -3.3453    1.5675 HO        1 <0>        0.39031
     28 H18        -0.4893   -1.2369   -2.1383 HO        1 <0>        0.39204
@<TRIPOS>BOND
     1    1    4 1
     2    2    7 1
     3    3    8 1
     4    4    5 1
     5    5    8 1
     6    6    7 1
     7    6    8 1
     8    7    9 1
     9    8   10 1
    10    1   11 1
    11    1   12 1
    12    1   13 1
    13    2   14 1
    14    2   15 1
    15    2   16 1
    16    3   17 1
    17    3   18 1
    18    3   19 1
    19    4   20 1
    20    4   21 1
    21    5   22 1
    22    5   23 1
    23    6   24 1
    24    6   25 1
    25    7   26 1
    26    9   27 1
    27   10   28 1
@<TRIPOS>SUBSTRUCTURE
     1 <0>         1 GROUP 0 A     ****
