@<TRIPOS>MOLECULE
AlkEthOH_r722
   27    27     1     0     0
SMALL
USER_CHARGES

@<TRIPOS>ATOM
      1 C1         -1.0988    0.5176    1.6115 CT        1 <0>        0.10389
      2 C2         -1.0098    1.7353    0.7129 CT        1 <0>        0.10400
      3 C3         -0.0675   -1.2805    0.3735 CT        1 <0>        0.36022
      4 C4          0.6006    0.7774   -0.8419 CT        1 <0>        0.36022
      5 C5          0.5883   -2.0226    1.5499 CT        1 <0>       -0.11020
      6 C6         -0.4716   -2.3446   -0.6557 CT        1 <0>       -0.11020
      7 C7         -0.3987    0.6298   -1.9939 CT        1 <0>       -0.11020
      8 C8          1.9307    1.2494   -1.4534 CT        1 <0>       -0.11020
      9 O1         -1.2696   -0.6491    0.8173 OS        1 <0>       -0.44406
     10 O2          0.2503    1.8310    0.0645 OS        1 <0>       -0.44406
     11 O3          0.9461   -0.4437   -0.1848 OS        1 <0>       -0.47409
     12 H1         -0.2310    0.4407    2.2724 H1        1 <0>        0.05859
     13 H2         -1.9924    0.6040    2.2380 H1        1 <0>        0.05859
     14 H3         -1.8164    1.7575   -0.0264 H1        1 <0>        0.05859
     15 H4         -1.1103    2.6367    1.3265 H1        1 <0>        0.05859
     16 H5          0.8904   -1.3031    2.3041 HC        1 <0>        0.05336
     17 H6          1.4586   -2.5633    1.1922 HC        1 <0>        0.05336
     18 H7         -0.1252   -2.7204    1.9762 HC        1 <0>        0.05336
     19 H8         -0.9415   -1.8631   -1.5085 HC        1 <0>        0.05336
     20 H9         -1.1715   -3.0401   -0.2012 HC        1 <0>        0.05336
     21 H10         0.4124   -2.8833   -0.9852 HC        1 <0>        0.05336
     22 H11        -1.3572    0.2962   -1.6042 HC        1 <0>        0.05336
     23 H12        -0.0261   -0.1004   -2.7079 HC        1 <0>        0.05336
     24 H13        -0.5255    1.5883   -2.4911 HC        1 <0>        0.05336
     25 H14         2.6665    1.3657   -0.6644 HC        1 <0>        0.05336
     26 H15         1.7777    2.2005   -1.9530 HC        1 <0>        0.05336
     27 H16         2.2771    0.5119   -2.1701 HC        1 <0>        0.05336
@<TRIPOS>BOND
     1    1    2 1
     2    1    9 1
     3    2   10 1
     4    3    5 1
     5    3    6 1
     6    3    9 1
     7    3   11 1
     8    4    7 1
     9    4    8 1
    10    4   10 1
    11    4   11 1
    12    1   12 1
    13    1   13 1
    14    2   14 1
    15    2   15 1
    16    5   16 1
    17    5   17 1
    18    5   18 1
    19    6   19 1
    20    6   20 1
    21    6   21 1
    22    7   22 1
    23    7   23 1
    24    7   24 1
    25    8   25 1
    26    8   26 1
    27    8   27 1
@<TRIPOS>SUBSTRUCTURE
     1 <0>         1 GROUP 0 A     ****
