@<TRIPOS>MOLECULE
AlkEthOH_r892
   31    31     1     0     0
SMALL
USER_CHARGES

@<TRIPOS>ATOM
      1 C1          1.6563    0.6635   -1.4296 CT        1 <0>       -0.07514
      2 C2          2.1292   -0.7778   -1.2011 CT        1 <0>       -0.07440
      3 C3          0.2365    0.7827   -1.9913 CT        1 <0>       -0.07398
      4 C4          1.2490   -1.6537   -0.3002 CT        1 <0>       -0.07272
      5 C5         -0.6987    1.6859   -1.1734 CT        1 <0>       -0.07132
      6 C6          1.0106   -1.0799    1.1029 CT        1 <0>       -0.06549
      7 C7         -1.3547   -0.1150    0.5453 CT        1 <0>       -0.10713
      8 C8         -0.8697    1.3303    0.3192 CT        1 <0>       -0.05864
      9 C9         -0.4672   -0.9286    1.5021 CT        1 <0>        0.14439
     10 C10        -1.8486    2.3203    0.9652 CT        1 <0>       -0.09280
     11 O1         -1.0427   -2.2276    1.6609 OH        1 <0>       -0.60450
     12 H1          1.7825    1.2490   -0.5146 HC        1 <0>        0.03628
     13 H2          2.3467    1.1214   -2.1507 HC        1 <0>        0.03628
     14 H3          2.2227   -1.2754   -2.1749 HC        1 <0>        0.03676
     15 H4          3.1416   -0.7436   -0.7791 HC        1 <0>        0.03676
     16 H5          0.3056    1.2163   -2.9978 HC        1 <0>        0.03951
     17 H6         -0.2233   -0.1978   -2.1432 HC        1 <0>        0.03951
     18 H7          0.3099   -1.8905   -0.8082 HC        1 <0>        0.04480
     19 H8          1.7592   -2.6199   -0.1901 HC        1 <0>        0.04480
     20 H9         -0.3279    2.7170   -1.2466 HC        1 <0>        0.03687
     21 H10        -1.6826    1.6823   -1.6607 HC        1 <0>        0.03687
     22 H11         1.4764   -1.7713    1.8186 HC        1 <0>        0.04905
     23 H12         1.5339   -0.1288    1.2374 HC        1 <0>        0.04905
     24 H13        -2.3720   -0.1090    0.9611 HC        1 <0>        0.04684
     25 H14        -1.4754   -0.6564   -0.3984 HC        1 <0>        0.04684
     26 H15         0.0869    1.4899    0.8247 HC        1 <0>        0.05095
     27 H16        -0.4983   -0.4486    2.4999 H1        1 <0>        0.02407
     28 H17        -2.8268    2.2135    0.5052 HC        1 <0>        0.03354
     29 H18        -1.4873    3.3339    0.8177 HC        1 <0>        0.03354
     30 H19        -1.9232    2.1128    2.0287 HC        1 <0>        0.03354
     31 H20        -1.9673   -2.0854    1.9106 HO        1 <0>        0.39587
@<TRIPOS>BOND
     1    1    2 1
     2    1    3 1
     3    2    4 1
     4    3    5 1
     5    4    6 1
     6    5    8 1
     7    6    9 1
     8    7    8 1
     9    7    9 1
    10    8   10 1
    11    9   11 1
    12    1   12 1
    13    1   13 1
    14    2   14 1
    15    2   15 1
    16    3   16 1
    17    3   17 1
    18    4   18 1
    19    4   19 1
    20    5   20 1
    21    5   21 1
    22    6   22 1
    23    6   23 1
    24    7   24 1
    25    7   25 1
    26    8   26 1
    27    9   27 1
    28   10   28 1
    29   10   29 1
    30   10   30 1
    31   11   31 1
@<TRIPOS>SUBSTRUCTURE
     1 <0>         1 GROUP 0 A     ****
