@<TRIPOS>MOLECULE
AlkEthOH_c495
   31    30     1     0     0
SMALL
USER_CHARGES

@<TRIPOS>ATOM
      1 C1         -0.6048    3.5111   -1.4341 CT        1 <0>       -0.10667
      2 C2         -2.2138    3.0368    0.4469 CT        1 <0>       -0.10667
      3 C3         -1.2713   -1.5490   -0.0525 CT        1 <0>       -0.08801
      4 C4          1.1780   -1.8042    0.3223 CT        1 <0>       -0.08801
      5 C5          0.3446   -0.9650   -1.8738 CT        1 <0>       -0.08801
      6 C6          0.0104    0.6376    1.7270 CT        1 <0>       -0.15074
      7 C7         -0.8619    2.7081   -0.1681 CT        1 <0>        0.14769
      8 C8          0.1038   -0.9133   -0.3502 CT        1 <0>       -0.05934
      9 C9          0.2053    0.5614    0.2032 CT        1 <0>        0.35738
     10 O1          1.5166    1.0452   -0.1191 OH        1 <0>       -0.62285
     11 O2         -0.8125    1.3229   -0.4753 OS        1 <0>       -0.41254
     12 H1         -1.3810    3.3299   -2.1838 HC        1 <0>        0.04164
     13 H2         -0.5804    4.5824   -1.2074 HC        1 <0>        0.04164
     14 H3          0.3687    3.2599   -1.8696 HC        1 <0>        0.04164
     15 H4         -3.0283    2.8443   -0.2580 HC        1 <0>        0.04164
     16 H5         -2.2507    4.0900    0.7453 HC        1 <0>        0.04164
     17 H6         -2.3883    2.4469    1.3534 HC        1 <0>        0.04164
     18 H7         -2.0886   -0.9723   -0.4981 HC        1 <0>        0.03960
     19 H8         -1.3355   -2.5750   -0.4278 HC        1 <0>        0.03960
     20 H9         -1.4561   -1.5950    1.0274 HC        1 <0>        0.03960
     21 H10         2.1882   -1.4156    0.1547 HC        1 <0>        0.03960
     22 H11         1.1527   -2.8238   -0.0799 HC        1 <0>        0.03960
     23 H12         1.0202   -1.8772    1.4038 HC        1 <0>        0.03960
     24 H13         1.3099   -0.5257   -2.1455 HC        1 <0>        0.03960
     25 H14        -0.4264   -0.4013   -2.4123 HC        1 <0>        0.03960
     26 H15         0.3217   -1.9924   -2.2523 HC        1 <0>        0.03960
     27 H16         0.0829    1.6636    2.0985 HC        1 <0>        0.05055
     28 H17        -0.9911    0.2964    2.0129 HC        1 <0>        0.05055
     29 H18         0.7242    0.0033    2.2608 HC        1 <0>        0.05055
     30 H19        -0.0700    2.9109    0.5604 H1        1 <0>        0.05140
     31 H20         2.1718    0.4875    0.3322 HO        1 <0>        0.40848
@<TRIPOS>BOND
     1    1    7 1
     2    2    7 1
     3    3    8 1
     4    4    8 1
     5    5    8 1
     6    6    9 1
     7    7   11 1
     8    8    9 1
     9    9   10 1
    10    9   11 1
    11    1   12 1
    12    1   13 1
    13    1   14 1
    14    2   15 1
    15    2   16 1
    16    2   17 1
    17    3   18 1
    18    3   19 1
    19    3   20 1
    20    4   21 1
    21    4   22 1
    22    4   23 1
    23    5   24 1
    24    5   25 1
    25    5   26 1
    26    6   27 1
    27    6   28 1
    28    6   29 1
    29    7   30 1
    30   10   31 1
@<TRIPOS>SUBSTRUCTURE
     1 <0>         1 GROUP 0 A     ****
