@<TRIPOS>MOLECULE
AlkEthOH_c422
   24    23     1     0     0
SMALL
USER_CHARGES

@<TRIPOS>ATOM
      1 C1          1.5478    2.0591   -0.9231 CT        1 <0>       -0.09128
      2 C2          1.1248   -0.3268   -0.2990 CT        1 <0>       -0.09128
      3 C3          2.3210    1.0508   -4.3346 CT        1 <0>       -0.09017
      4 C4          0.5523    0.5172   -2.6391 CT        1 <0>       -0.06888
      5 C5         -0.0921    1.2633   -5.0163 CT        1 <0>        0.13253
      6 C6          1.5136    0.6167   -1.4376 CT        1 <0>       -0.06737
      7 C7          0.9046    1.3981   -3.8578 CT        1 <0>       -0.06688
      8 O1          0.2413    2.1500   -6.0749 OH        1 <0>       -0.60314
      9 H1          0.5567    2.3734   -0.5793 HC        1 <0>        0.03364
     10 H2          2.2383    2.1546   -0.0783 HC        1 <0>        0.03364
     11 H3          1.8710    2.7537   -1.7059 HC        1 <0>        0.03364
     12 H4          0.1136   -0.1146    0.0643 HC        1 <0>        0.03364
     13 H5          1.1609   -1.3727   -0.6182 HC        1 <0>        0.03364
     14 H6          1.8153   -0.2225    0.5451 HC        1 <0>        0.03364
     15 H7          2.3740    0.0070   -4.6621 HC        1 <0>        0.03783
     16 H8          2.6315    1.6836   -5.1728 HC        1 <0>        0.03783
     17 H9          3.0462    1.1811   -3.5242 HC        1 <0>        0.03783
     18 H10        -0.4615    0.7658   -2.2977 HC        1 <0>        0.03895
     19 H11         0.5098   -0.5298   -2.9691 HC        1 <0>        0.03895
     20 H12        -0.1024    0.2419   -5.4089 H1        1 <0>        0.02030
     21 H13        -1.1065    1.4991   -4.6766 H1        1 <0>        0.02030
     22 H14         2.5291    0.3646   -1.7645 HC        1 <0>        0.04897
     23 H15         0.9204    2.4494   -3.5461 HC        1 <0>        0.06543
     24 H16        -0.4218    2.0173   -6.7717 HO        1 <0>        0.39824
@<TRIPOS>BOND
     1    1    6 1
     2    2    6 1
     3    3    7 1
     4    4    6 1
     5    4    7 1
     6    5    7 1
     7    5    8 1
     8    1    9 1
     9    1   10 1
    10    1   11 1
    11    2   12 1
    12    2   13 1
    13    2   14 1
    14    3   15 1
    15    3   16 1
    16    3   17 1
    17    4   18 1
    18    4   19 1
    19    5   20 1
    20    5   21 1
    21    6   22 1
    22    7   23 1
    23    8   24 1
@<TRIPOS>SUBSTRUCTURE
     1 <0>         1 GROUP 0 A     ****
