@<TRIPOS>MOLECULE
AlkEthOH_c496
   29    28     1     0     0
SMALL
USER_CHARGES

@<TRIPOS>ATOM
      1 C1         -0.8034   -2.7659   -2.1563 CT        1 <0>       -0.10437
      2 C2         -0.2141   -0.7756   -3.5856 CT        1 <0>       -0.10437
      3 C3          0.7468    1.3594    1.8037 CT        1 <0>       -0.12200
      4 C4         -1.4105    0.1478    1.4363 CT        1 <0>       -0.12200
      5 C5          1.0853   -1.3998    0.4898 CT        1 <0>       -0.11072
      6 C6         -0.0365   -1.4548   -2.2362 CT        1 <0>        0.14272
      7 C7         -0.2089    0.8053    0.7361 CT        1 <0>        0.14148
      8 C8          0.4975   -0.1848   -0.2470 CT        1 <0>        0.36149
      9 O1         -0.7111    1.9156   -0.0181 OH        1 <0>       -0.60196
     10 O2          1.5701    0.5395   -0.8662 OH        1 <0>       -0.62414
     11 O3         -0.4915   -0.5842   -1.2112 OS        1 <0>       -0.44591
     12 H1         -1.8728   -2.6118   -2.3297 HC        1 <0>        0.04068
     13 H2         -0.4264   -3.4739   -2.9021 HC        1 <0>        0.04068
     14 H3         -0.6720   -3.2408   -1.1777 HC        1 <0>        0.04068
     15 H4         -1.2694   -0.5740   -3.7931 HC        1 <0>        0.04068
     16 H5          0.1854   -1.4076   -4.3859 HC        1 <0>        0.04068
     17 H6          0.3378    0.1700   -3.6265 HC        1 <0>        0.04068
     18 H7          1.6238    1.8405    1.3599 HC        1 <0>        0.04853
     19 H8          1.0980    0.5568    2.4632 HC        1 <0>        0.04853
     20 H9          0.2420    2.0788    2.4565 HC        1 <0>        0.04853
     21 H10        -2.1258   -0.2654    0.7184 HC        1 <0>        0.04853
     22 H11        -1.0801   -0.6650    2.0940 HC        1 <0>        0.04853
     23 H12        -1.9344    0.8612    2.0818 HC        1 <0>        0.04853
     24 H13         1.5790   -2.0915   -0.1993 HC        1 <0>        0.05385
     25 H14         1.8378   -1.0901    1.2238 HC        1 <0>        0.05385
     26 H15         0.3188   -1.9375    1.0572 HC        1 <0>        0.05385
     27 H16         1.0275   -1.6424   -2.0587 H1        1 <0>        0.05338
     28 H17        -1.1690    2.4854    0.6158 HO        1 <0>        0.40637
     29 H18         1.1969    1.3067   -1.3312 HO        1 <0>        0.43322
@<TRIPOS>BOND
     1    1    6 1
     2    2    6 1
     3    3    7 1
     4    4    7 1
     5    5    8 1
     6    6   11 1
     7    7    8 1
     8    7    9 1
     9    8   10 1
    10    8   11 1
    11    1   12 1
    12    1   13 1
    13    1   14 1
    14    2   15 1
    15    2   16 1
    16    2   17 1
    17    3   18 1
    18    3   19 1
    19    3   20 1
    20    4   21 1
    21    4   22 1
    22    4   23 1
    23    5   24 1
    24    5   25 1
    25    5   26 1
    26    6   27 1
    27    9   28 1
    28   10   29 1
@<TRIPOS>SUBSTRUCTURE
     1 <0>         1 GROUP 0 A     ****
