@<TRIPOS>MOLECULE
AlkEthOH_r627
   29    29     1     0     0
SMALL
USER_CHARGES

@<TRIPOS>ATOM
      1 C1          0.1854   -0.0998   -2.3160 CT        1 <0>       -0.07298
      2 C2         -0.1558   -1.5193   -1.8421 CT        1 <0>       -0.10933
      3 C3         -0.9035    0.9437   -2.0239 CT        1 <0>       -0.08479
      4 C4          0.8425   -2.0827   -0.8237 CT        1 <0>        0.13121
      5 C5         -1.2893    1.0795   -0.5513 CT        1 <0>        0.13279
      6 C6          0.1157   -0.9501    1.1628 CT        1 <0>        0.10570
      7 C7          0.0067    0.5618    1.4505 CT        1 <0>        0.14757
      8 C8         -1.1539    0.8588    2.4085 CT        1 <0>       -0.10283
      9 C9          1.3114    1.0670    2.0876 CT        1 <0>       -0.10283
     10 O1          1.1633   -1.1673    0.2185 OS        1 <0>       -0.40719
     11 O2         -0.1225    1.3084    0.2292 OS        1 <0>       -0.40802
     12 H1          1.1408    0.2407   -1.9003 HC        1 <0>        0.05350
     13 H2          0.3315   -0.1263   -3.4036 HC        1 <0>        0.05350
     14 H3         -1.1685   -1.5577   -1.4289 HC        1 <0>        0.03988
     15 H4         -0.1695   -2.1934   -2.7078 HC        1 <0>        0.03988
     16 H5         -0.5315    1.9129   -2.3792 HC        1 <0>        0.04338
     17 H6         -1.8013    0.7140   -2.6097 HC        1 <0>        0.04338
     18 H7          0.4780   -3.0249   -0.3980 H1        1 <0>        0.04422
     19 H8          1.7820   -2.3086   -1.3405 H1        1 <0>        0.04422
     20 H9         -1.9475    1.9467   -0.4288 H1        1 <0>        0.02897
     21 H10        -1.8570    0.2037   -0.2281 H1        1 <0>        0.02897
     22 H11         0.3713   -1.4970    2.0778 H1        1 <0>        0.03860
     23 H12        -0.8345   -1.3600    0.8067 H1        1 <0>        0.03860
     24 H13        -1.2070    1.9282    2.5931 HC        1 <0>        0.04560
     25 H14        -0.9912    0.3372    3.3476 HC        1 <0>        0.04560
     26 H15        -2.0862    0.5215    1.9638 HC        1 <0>        0.04560
     27 H16         1.2257    2.1306    2.2863 HC        1 <0>        0.04560
     28 H17         2.1365    0.8892    1.4052 HC        1 <0>        0.04560
     29 H18         1.4863    0.5353    3.0176 HC        1 <0>        0.04560
@<TRIPOS>BOND
     1    1    2 1
     2    1    3 1
     3    2    4 1
     4    3    5 1
     5    4   10 1
     6    5   11 1
     7    6    7 1
     8    6   10 1
     9    7    8 1
    10    7    9 1
    11    7   11 1
    12    1   12 1
    13    1   13 1
    14    2   14 1
    15    2   15 1
    16    3   16 1
    17    3   17 1
    18    4   18 1
    19    4   19 1
    20    5   20 1
    21    5   21 1
    22    6   22 1
    23    6   23 1
    24    8   24 1
    25    8   25 1
    26    8   26 1
    27    9   27 1
    28    9   28 1
    29    9   29 1
@<TRIPOS>SUBSTRUCTURE
     1 <0>         1 GROUP 0 A     ****
