@<TRIPOS>MOLECULE
AlkEthOH_r763
   29    29     1     0     0
SMALL
USER_CHARGES

@<TRIPOS>ATOM
      1 C1          0.0822    1.0315   -2.1272 CT        1 <0>       -0.10873
      2 C2         -0.3776   -0.3897   -2.4545 CT        1 <0>       -0.08956
      3 C3          1.3934    1.1210   -1.3444 CT        1 <0>        0.13311
      4 C4         -0.5354   -1.3204   -1.2554 CT        1 <0>        0.13358
      5 C5          0.4293    0.7554    0.8298 CT        1 <0>        0.11958
      6 C6         -0.5997   -0.3983    1.0221 CT        1 <0>        0.14965
      7 C7          1.1987    1.1307    2.0964 CT        1 <0>       -0.10368
      8 C8          0.0081   -1.6748    1.6306 CT        1 <0>       -0.10181
      9 C9         -1.7335    0.0707    1.9543 CT        1 <0>       -0.10181
     10 O1          1.4141    0.3674   -0.1350 OS        1 <0>       -0.42390
     11 O2         -1.2795   -0.6936   -0.2167 OS        1 <0>       -0.42628
     12 H1          0.1995    1.5868   -3.0659 HC        1 <0>        0.04974
     13 H2         -0.7196    1.5395   -1.5798 HC        1 <0>        0.04974
     14 H3         -1.3491   -0.3080   -2.9584 HC        1 <0>        0.04232
     15 H4          0.3106   -0.8474   -3.1749 HC        1 <0>        0.04232
     16 H5          2.2101    0.7412   -1.9679 H1        1 <0>        0.04379
     17 H6          1.6278    2.1673   -1.1160 H1        1 <0>        0.04379
     18 H7         -1.1057   -2.2009   -1.5724 H1        1 <0>        0.04811
     19 H8          0.4383   -1.6936   -0.9300 H1        1 <0>        0.04811
     20 H9         -0.0973    1.6562    0.4914 H1        1 <0>        0.05023
     21 H10         1.7389    0.2626    2.4691 HC        1 <0>        0.04334
     22 H11         0.5039    1.4748    2.8600 HC        1 <0>        0.04334
     23 H12         1.9082    1.9253    1.8736 HC        1 <0>        0.04334
     24 H13        -0.7675   -2.4263    1.7321 HC        1 <0>        0.04528
     25 H14         0.4229   -1.4430    2.6058 HC        1 <0>        0.04528
     26 H15         0.7919   -2.0434    0.9775 HC        1 <0>        0.04528
     27 H16        -2.4450   -0.7373    2.0830 HC        1 <0>        0.04528
     28 H17        -2.2274    0.9276    1.5101 HC        1 <0>        0.04528
     29 H18        -1.3129    0.3462    2.9149 HC        1 <0>        0.04528
@<TRIPOS>BOND
     1    1    2 1
     2    1    3 1
     3    2    4 1
     4    3   10 1
     5    4   11 1
     6    5    6 1
     7    5    7 1
     8    5   10 1
     9    6    8 1
    10    6    9 1
    11    6   11 1
    12    1   12 1
    13    1   13 1
    14    2   14 1
    15    2   15 1
    16    3   16 1
    17    3   17 1
    18    4   18 1
    19    4   19 1
    20    5   20 1
    21    7   21 1
    22    7   22 1
    23    7   23 1
    24    8   24 1
    25    8   25 1
    26    8   26 1
    27    9   27 1
    28    9   28 1
    29    9   29 1
@<TRIPOS>SUBSTRUCTURE
     1 <0>         1 GROUP 0 A     ****
