@<TRIPOS>MOLECULE
AlkEthOH_r1098
   22    22     1     0     0
SMALL
USER_CHARGES

@<TRIPOS>ATOM
      1 C1         -1.9063    0.6152   -0.8561 CT        1 <0>        0.10781
      2 C2         -1.4076   -0.8232   -0.9624 CT        1 <0>        0.11180
      3 C3         -0.3625    1.4832    0.7556 CT        1 <0>        0.09834
      4 C4          1.0545    0.9023    0.7735 CT        1 <0>        0.13955
      5 C5          0.4042   -1.4078    0.4901 CT        1 <0>        0.52282
      6 C6          2.0507    1.8861    0.1634 CT        1 <0>       -0.09212
      7 O1         -0.8586    1.5471   -0.5821 OS        1 <0>       -0.40862
      8 O2         -1.0133   -1.2906    0.3267 OS        1 <0>       -0.45069
      9 O3          1.1654   -0.2990    0.0097 OS        1 <0>       -0.47774
     10 O4          0.8734   -2.6134   -0.1185 OH        1 <0>       -0.61693
     11 H1         -2.3429    0.9085   -1.8164 H1        1 <0>        0.05425
     12 H2         -2.6884    0.7125   -0.0940 H1        1 <0>        0.05425
     13 H3         -2.2334   -1.4610   -1.2937 H1        1 <0>        0.06575
     14 H4         -0.5974   -0.9132   -1.6948 H1        1 <0>        0.06575
     15 H5         -1.0337    0.9143    1.4087 H1        1 <0>        0.05561
     16 H6         -0.3489    2.5053    1.1510 H1        1 <0>        0.05561
     17 H7          1.3600    0.7039    1.8079 H1        1 <0>        0.03503
     18 H8          0.5857   -1.5108    1.5665 H3        1 <0>        0.09278
     19 H9          1.7721    2.1025   -0.8666 HC        1 <0>        0.05085
     20 H10         3.0509    1.4563    0.1795 HC        1 <0>        0.05085
     21 H11         2.0514    2.8128    0.7350 HC        1 <0>        0.05085
     22 H12         1.8310   -2.6351    0.0245 HO        1 <0>        0.43420
@<TRIPOS>BOND
     1    1    2 1
     2    1    7 1
     3    2    8 1
     4    3    4 1
     5    3    7 1
     6    4    6 1
     7    4    9 1
     8    5    8 1
     9    5    9 1
    10    5   10 1
    11    1   11 1
    12    1   12 1
    13    2   13 1
    14    2   14 1
    15    3   15 1
    16    3   16 1
    17    4   17 1
    18    5   18 1
    19    6   19 1
    20    6   20 1
    21    6   21 1
    22   10   22 1
@<TRIPOS>SUBSTRUCTURE
     1 <0>         1 GROUP 0 A     ****
