@<TRIPOS>MOLECULE
AlkEthOH_c244
   27    26     1     0     0
SMALL
USER_CHARGES

@<TRIPOS>ATOM
      1 C1         -1.7719   -1.4684   -0.2925 CT        1 <0>       -0.11478
      2 C2         -0.6555   -2.0380    1.8597 CT        1 <0>       -0.11478
      3 C3          0.7242    1.8590    1.2163 CT        1 <0>       -0.14790
      4 C4          1.5001    1.0516   -1.0143 CT        1 <0>       -0.09719
      5 C5          1.2276    0.2358   -2.2779 CT        1 <0>        0.13479
      6 C6         -0.9860   -0.8998    0.8904 CT        1 <0>        0.37209
      7 C7          0.3556    0.9810    0.0155 CT        1 <0>        0.37440
      8 O1          2.3477    0.3526   -3.1463 OH        1 <0>       -0.60730
      9 O2         -1.8123    0.0471    1.5613 OH        1 <0>       -0.61615
     10 O3         -0.8108    1.4972   -0.6204 OH        1 <0>       -0.63945
     11 O4          0.2701   -0.3887    0.4294 OS        1 <0>       -0.46026
     12 H1         -2.0277   -0.6813   -1.0106 HC        1 <0>        0.05305
     13 H2         -1.1888   -2.2111   -0.8451 HC        1 <0>        0.05305
     14 H3         -2.6910   -1.9619    0.0408 HC        1 <0>        0.05305
     15 H4         -0.0910   -1.6556    2.7183 HC        1 <0>        0.05305
     16 H5         -0.0324   -2.8021    1.3824 HC        1 <0>        0.05305
     17 H6         -1.5640   -2.5066    2.2525 HC        1 <0>        0.05305
     18 H7         -0.0627    1.8402    1.9778 HC        1 <0>        0.05621
     19 H8          1.6688    1.5351    1.6667 HC        1 <0>        0.05621
     20 H9          0.8626    2.9042    0.9247 HC        1 <0>        0.05621
     21 H10         2.4358    0.6894   -0.5682 HC        1 <0>        0.06571
     22 H11         1.6791    2.0933   -1.3119 HC        1 <0>        0.06571
     23 H12         1.0848   -0.8233   -2.0429 H1        1 <0>        0.03318
     24 H13         0.3435    0.6064   -2.8056 H1        1 <0>        0.03318
     25 H14         2.1450   -0.1740   -3.9360 HO        1 <0>        0.39912
     26 H15        -2.6134   -0.4077    1.8710 HO        1 <0>        0.41679
     27 H16        -0.6186    2.4023   -0.9179 HO        1 <0>        0.41591
@<TRIPOS>BOND
     1    1    6 1
     2    2    6 1
     3    3    7 1
     4    4    5 1
     5    4    7 1
     6    5    8 1
     7    6    9 1
     8    6   11 1
     9    7   10 1
    10    7   11 1
    11    1   12 1
    12    1   13 1
    13    1   14 1
    14    2   15 1
    15    2   16 1
    16    2   17 1
    17    3   18 1
    18    3   19 1
    19    3   20 1
    20    4   21 1
    21    4   22 1
    22    5   23 1
    23    5   24 1
    24    8   25 1
    25    9   26 1
    26   10   27 1
@<TRIPOS>SUBSTRUCTURE
     1 <0>         1 GROUP 0 A     ****
