@<TRIPOS>MOLECULE
AlkEthOH_r516
   26    26     1     0     0
SMALL
USER_CHARGES

@<TRIPOS>ATOM
      1 C1          1.6259    0.4567    0.4397 CT        1 <0>       -0.13902
      2 C2          1.5567   -1.0295    0.1349 CT        1 <0>        0.13473
      3 C3          0.2312    1.0403    0.7073 CT        1 <0>        0.16510
      4 C4         -0.6420   -0.7337   -0.7438 CT        1 <0>        0.34897
      5 C5          0.2964    2.5724    0.5998 CT        1 <0>       -0.10201
      6 C6         -0.2838    0.6948    2.1099 CT        1 <0>       -0.10201
      7 C7         -1.4658   -1.6679    0.1471 CT        1 <0>       -0.10786
      8 C8         -1.2998   -0.7167   -2.1305 CT        1 <0>       -0.10786
      9 O1          0.6771   -1.2446   -0.9616 OS        1 <0>       -0.43602
     10 O2         -0.6959    0.6282   -0.3027 OS        1 <0>       -0.44122
     11 H1          2.3061    0.6493    1.2768 HC        1 <0>        0.05959
     12 H2          2.0484    0.9489   -0.4466 HC        1 <0>        0.05959
     13 H3          2.5466   -1.3945   -0.1575 H1        1 <0>        0.05033
     14 H4          1.2412   -1.6188    1.0009 H1        1 <0>        0.05033
     15 H5         -0.6884    2.9879    0.7885 HC        1 <0>        0.04388
     16 H6          0.6235    2.8488   -0.3975 HC        1 <0>        0.04388
     17 H7          0.9998    2.9542    1.3331 HC        1 <0>        0.04388
     18 H8         -1.2702    1.1282    2.2512 HC        1 <0>        0.04388
     19 H9          0.3975    1.0959    2.8554 HC        1 <0>        0.04388
     20 H10        -0.3441   -0.3847    2.2185 HC        1 <0>        0.04388
     21 H11        -1.0273   -1.7046    1.1414 HC        1 <0>        0.05068
     22 H12        -1.4726   -2.6677   -0.2804 HC        1 <0>        0.05068
     23 H13        -2.4865   -1.2993    0.2171 HC        1 <0>        0.05068
     24 H14        -0.7378   -0.0609   -2.7893 HC        1 <0>        0.05068
     25 H15        -2.3200   -0.3543   -2.0423 HC        1 <0>        0.05068
     26 H16        -1.3064   -1.7229   -2.5399 HC        1 <0>        0.05068
@<TRIPOS>BOND
     1    1    2 1
     2    1    3 1
     3    2    9 1
     4    3    5 1
     5    3    6 1
     6    3   10 1
     7    4    7 1
     8    4    8 1
     9    4    9 1
    10    4   10 1
    11    1   11 1
    12    1   12 1
    13    2   13 1
    14    2   14 1
    15    5   15 1
    16    5   16 1
    17    5   17 1
    18    6   18 1
    19    6   19 1
    20    6   20 1
    21    7   21 1
    22    7   22 1
    23    7   23 1
    24    8   24 1
    25    8   25 1
    26    8   26 1
@<TRIPOS>SUBSTRUCTURE
     1 <0>         1 GROUP 0 A     ****
