@<TRIPOS>MOLECULE
AlkEthOH_r99
   21    21     1     0     0
SMALL
USER_CHARGES

@<TRIPOS>ATOM
      1 C1         -0.6973    1.6817    0.1568 CT        1 <0>       -0.06532
      2 C2          0.2409    1.5916   -1.0515 CT        1 <0>       -0.10959
      3 C3         -1.5884    0.4506    0.3662 CT        1 <0>       -0.11808
      4 C4          1.6746    1.1869   -0.7007 CT        1 <0>        0.13653
      5 C5          1.3376   -1.1288   -0.2088 CT        1 <0>        0.32432
      6 C6         -0.8469   -0.8493    0.6818 CT        1 <0>        0.33674
      7 O1          1.7718    0.1438    0.2607 OS        1 <0>       -0.45285
      8 O2         -0.0633   -1.2256   -0.4471 OS        1 <0>       -0.43898
      9 O3         -1.8290   -1.8509    0.9427 OH        1 <0>       -0.60535
     10 H1         -0.1369    1.9038    1.0725 HC        1 <0>        0.04446
     11 H2         -1.3679    2.5358   -0.0041 HC        1 <0>        0.04446
     12 H3         -0.1716    0.9077   -1.8022 HC        1 <0>        0.05392
     13 H4          0.2878    2.5720   -1.5424 HC        1 <0>        0.05392
     14 H5         -2.2943    0.6632    1.1795 HC        1 <0>        0.05279
     15 H6         -2.2050    0.3051   -0.5310 HC        1 <0>        0.05279
     16 H7          2.2342    0.9194   -1.6046 H1        1 <0>        0.04527
     17 H8          2.1824    2.0539   -0.2632 H1        1 <0>        0.04527
     18 H9          1.8657   -1.3846   -1.1338 H2        1 <0>        0.06749
     19 H10         1.6168   -1.8776    0.5406 H2        1 <0>        0.06749
     20 H11        -0.2451   -0.7316    1.5917 H2        1 <0>        0.05751
     21 H12        -2.3462   -1.5376    1.7002 HO        1 <0>        0.40721
@<TRIPOS>BOND
     1    1    2 1
     2    1    3 1
     3    2    4 1
     4    3    6 1
     5    4    7 1
     6    5    7 1
     7    5    8 1
     8    6    8 1
     9    6    9 1
    10    1   10 1
    11    1   11 1
    12    2   12 1
    13    2   13 1
    14    3   14 1
    15    3   15 1
    16    4   16 1
    17    4   17 1
    18    5   18 1
    19    5   19 1
    20    6   20 1
    21    9   21 1
@<TRIPOS>SUBSTRUCTURE
     1 <0>         1 GROUP 0 A     ****
