@<TRIPOS>MOLECULE
AlkEthOH_c437
   28    27     1     0     0
SMALL
USER_CHARGES

@<TRIPOS>ATOM
      1 C1          0.9601    2.8485   -1.4954 CT        1 <0>       -0.09268
      2 C2         -0.1536    1.9671   -3.5563 CT        1 <0>       -0.09268
      3 C3         -0.8572   -1.9231    2.9728 CT        1 <0>       -0.12984
      4 C4         -0.4266    0.7622   -1.3255 CT        1 <0>       -0.10821
      5 C5         -0.6770   -0.5746    0.8485 CT        1 <0>       -0.06757
      6 C6         -0.2705    2.1171   -2.0394 CT        1 <0>       -0.06829
      7 C7         -0.8323   -0.5220    2.3751 CT        1 <0>        0.13915
      8 C8         -0.6095    0.8165    0.1996 CT        1 <0>        0.14051
      9 O1          0.2667    0.1950    2.9301 OH        1 <0>       -0.60645
     10 O2         -1.8369    1.4986    0.4694 OH        1 <0>       -0.60585
     11 H1          1.8711    2.2707   -1.6838 HC        1 <0>        0.03496
     12 H2          1.0784    3.8317   -1.9635 HC        1 <0>        0.03496
     13 H3          0.8778    2.9965   -0.4134 HC        1 <0>        0.03496
     14 H4          0.7059    1.3476   -3.8301 HC        1 <0>        0.03496
     15 H5         -0.0422    2.9414   -4.0442 HC        1 <0>        0.03496
     16 H6         -1.0456    1.4831   -3.9684 HC        1 <0>        0.03496
     17 H7          0.0537   -2.4754    2.7163 HC        1 <0>        0.04135
     18 H8         -0.8955   -1.8719    4.0664 HC        1 <0>        0.04135
     19 H9         -1.7243   -2.4904    2.6213 HC        1 <0>        0.04135
     20 H10        -1.2813    0.2222   -1.7563 HC        1 <0>        0.05050
     21 H11         0.4451    0.1326   -1.5511 HC        1 <0>        0.05050
     22 H12        -1.5263   -1.1288    0.4296 HC        1 <0>        0.05507
     23 H13         0.2382   -1.1275    0.6082 HC        1 <0>        0.05507
     24 H14        -1.1432    2.7435   -1.8204 HC        1 <0>        0.04133
     25 H15        -1.7532    0.0047    2.6476 H1        1 <0>        0.05199
     26 H16         0.1922    1.4070    0.6552 H1        1 <0>        0.05584
     27 H17         0.1216    0.2250    3.8886 HO        1 <0>        0.39839
     28 H18        -1.7455    2.3835    0.0867 HO        1 <0>        0.39941
@<TRIPOS>BOND
     1    1    6 1
     2    2    6 1
     3    3    7 1
     4    4    6 1
     5    4    8 1
     6    5    7 1
     7    5    8 1
     8    7    9 1
     9    8   10 1
    10    1   11 1
    11    1   12 1
    12    1   13 1
    13    2   14 1
    14    2   15 1
    15    2   16 1
    16    3   17 1
    17    3   18 1
    18    3   19 1
    19    4   20 1
    20    4   21 1
    21    5   22 1
    22    5   23 1
    23    6   24 1
    24    7   25 1
    25    8   26 1
    26    9   27 1
    27   10   28 1
@<TRIPOS>SUBSTRUCTURE
     1 <0>         1 GROUP 0 A     ****
