@<TRIPOS>MOLECULE
AlkEthOH_c867
   29    28     1     0     0
SMALL
USER_CHARGES

@<TRIPOS>ATOM
      1 C1          1.6326   -0.3162    3.4456 CT        1 <0>       -0.12500
      2 C2         -1.2129    1.0914   -1.8482 CT        1 <0>       -0.08864
      3 C3          0.1187   -0.6194   -3.0886 CT        1 <0>       -0.08864
      4 C4          1.1882    0.6934   -1.2572 CT        1 <0>       -0.08864
      5 C5         -0.5661   -1.1067   -0.7315 CT        1 <0>       -0.09471
      6 C6          0.2464   -0.3216    2.8227 CT        1 <0>        0.34206
      7 C7         -0.8315   -0.7129    0.7302 CT        1 <0>        0.34661
      8 C8         -0.1189    0.0201   -1.7046 CT        1 <0>       -0.05002
      9 O1         -0.3115    0.9746    3.0107 OH        1 <0>       -0.63695
     10 O2         -1.7102   -1.6765    1.3157 OH        1 <0>       -0.63744
     11 O3          0.4022   -0.6508    1.4429 OS        1 <0>       -0.41174
     12 H1          2.2802    0.4177    2.9556 HC        1 <0>        0.05260
     13 H2          2.1086   -1.2975    3.3375 HC        1 <0>        0.05260
     14 H3          1.5799   -0.0942    4.5162 HC        1 <0>        0.05260
     15 H4         -1.4272    1.5836   -0.8940 HC        1 <0>        0.03650
     16 H5         -0.9078    1.8738   -2.5527 HC        1 <0>        0.03650
     17 H6         -2.1466    0.6554   -2.2206 HC        1 <0>        0.03650
     18 H7          0.8935   -1.3929   -3.0387 HC        1 <0>        0.03650
     19 H8          0.4419    0.1274   -3.8229 HC        1 <0>        0.03650
     20 H9         -0.7959   -1.0858   -3.4722 HC        1 <0>        0.03650
     21 H10         1.9916   -0.0440   -1.1449 HC        1 <0>        0.03650
     22 H11         1.0644    1.1969   -0.2923 HC        1 <0>        0.03650
     23 H12         1.5379    1.4305   -1.9866 HC        1 <0>        0.03650
     24 H13        -1.4775   -1.5753   -1.1285 HC        1 <0>        0.05644
     25 H14         0.1976   -1.8975   -0.7397 HC        1 <0>        0.05644
     26 H15        -0.3745   -1.0656    3.3356 H2        1 <0>        0.05397
     27 H16        -1.3434    0.2527    0.7715 H2        1 <0>        0.05768
     28 H17        -0.3524    1.1359    3.9684 HO        1 <0>        0.41145
     29 H18        -2.5394   -1.6776    0.8088 HO        1 <0>        0.41083
@<TRIPOS>BOND
     1    1    6 1
     2    2    8 1
     3    3    8 1
     4    4    8 1
     5    5    7 1
     6    5    8 1
     7    6    9 1
     8    6   11 1
     9    7   10 1
    10    7   11 1
    11    1   12 1
    12    1   13 1
    13    1   14 1
    14    2   15 1
    15    2   16 1
    16    2   17 1
    17    3   18 1
    18    3   19 1
    19    3   20 1
    20    4   21 1
    21    4   22 1
    22    4   23 1
    23    5   24 1
    24    5   25 1
    25    6   26 1
    26    7   27 1
    27    9   28 1
    28   10   29 1
@<TRIPOS>SUBSTRUCTURE
     1 <0>         1 GROUP 0 A     ****
