@<TRIPOS>MOLECULE
AlkEthOH_r951
   28    28     1     0     0
SMALL
USER_CHARGES

@<TRIPOS>ATOM
      1 C1          0.1837    1.9007   -0.1554 CT        1 <0>       -0.06279
      2 C2          0.4339    1.3758    1.2597 CT        1 <0>       -0.11035
      3 C3         -0.4291   -2.0133    0.0039 CT        1 <0>       -0.09640
      4 C4         -0.3733    0.9276   -1.2019 CT        1 <0>       -0.07887
      5 C5          0.7945   -1.3764   -0.6669 CT        1 <0>       -0.06967
      6 C6         -0.8113    0.8550    1.9750 CT        1 <0>        0.13518
      7 C7         -0.7270   -1.4640    1.3982 CT        1 <0>        0.13064
      8 C8          0.5151   -0.2405   -1.6700 CT        1 <0>       -0.05631
      9 C9          1.8434    0.2678   -2.2449 CT        1 <0>       -0.09165
     10 O1         -1.4298   -0.2328    1.3025 OS        1 <0>       -0.42354
     11 H1         -0.5214    2.7395   -0.0802 HC        1 <0>        0.03519
     12 H2          1.1157    2.3400   -0.5303 HC        1 <0>        0.03519
     13 H3          1.2158    0.6153    1.2424 HC        1 <0>        0.04374
     14 H4          0.8401    2.2023    1.8568 HC        1 <0>        0.04374
     15 H5         -1.3078   -1.9286   -0.6453 HC        1 <0>        0.04989
     16 H6         -0.2167   -3.0838    0.1200 HC        1 <0>        0.04989
     17 H7         -1.3569    0.5557   -0.9025 HC        1 <0>        0.04965
     18 H8         -0.5858    1.5349   -2.0944 HC        1 <0>        0.04965
     19 H9          1.5364   -1.0773    0.0792 HC        1 <0>        0.03547
     20 H10         1.2886   -2.1765   -1.2376 HC        1 <0>        0.03547
     21 H11        -0.5743    0.5669    3.0061 H1        1 <0>        0.04260
     22 H12        -1.5536    1.6587    2.0339 H1        1 <0>        0.04260
     23 H13        -1.3963   -2.1626    1.9126 H1        1 <0>        0.03725
     24 H14         0.1835   -1.3892    2.0041 H1        1 <0>        0.03725
     25 H15        -0.0267   -0.7024   -2.5084 HC        1 <0>        0.03934
     26 H16         2.4240    0.7370   -1.4554 HC        1 <0>        0.03228
     27 H17         1.6448    0.9938   -3.0284 HC        1 <0>        0.03228
     28 H18         2.4024   -0.5672   -2.6581 HC        1 <0>        0.03228
@<TRIPOS>BOND
     1    1    2 1
     2    1    4 1
     3    2    6 1
     4    3    5 1
     5    3    7 1
     6    4    8 1
     7    5    8 1
     8    6   10 1
     9    7   10 1
    10    8    9 1
    11    1   11 1
    12    1   12 1
    13    2   13 1
    14    2   14 1
    15    3   15 1
    16    3   16 1
    17    4   17 1
    18    4   18 1
    19    5   19 1
    20    5   20 1
    21    6   21 1
    22    6   22 1
    23    7   23 1
    24    7   24 1
    25    8   25 1
    26    9   26 1
    27    9   27 1
    28    9   28 1
@<TRIPOS>SUBSTRUCTURE
     1 <0>         1 GROUP 0 A     ****
