@<TRIPOS>MOLECULE
AlkEthOH_r364
   34    34     1     0     0
SMALL
USER_CHARGES

@<TRIPOS>ATOM
      1 C1         -2.3686   -0.0116   -0.3567 CT        1 <0>       -0.07330
      2 C2         -1.6997    1.1992   -1.0252 CT        1 <0>       -0.07409
      3 C3         -2.3299    0.0537    1.1768 CT        1 <0>       -0.06843
      4 C4         -0.6648    0.8747   -2.1005 CT        1 <0>       -0.07116
      5 C5         -1.2975   -0.8452    1.8717 CT        1 <0>       -0.10980
      6 C6          0.5049   -0.0520   -1.7436 CT        1 <0>       -0.06558
      7 C7          0.7895    0.2660    0.8503 CT        1 <0>       -0.06612
      8 C8          0.0575   -1.0423    1.1833 CT        1 <0>        0.14761
      9 C9          1.4502    0.3150   -0.5601 CT        1 <0>       -0.04446
     10 C10         2.0292    1.7288   -0.7724 CT        1 <0>       -0.08790
     11 C11         2.6317   -0.6838   -0.5839 CT        1 <0>       -0.08790
     12 O1          0.8974   -1.8025    2.0604 OH        1 <0>       -0.60817
     13 H1         -3.4258    0.0060   -0.6551 HC        1 <0>        0.04024
     14 H2         -1.9861   -0.9660   -0.7288 HC        1 <0>        0.04024
     15 H3         -2.4909    1.7872   -1.5111 HC        1 <0>        0.03717
     16 H4         -1.2664    1.8903   -0.2980 HC        1 <0>        0.03717
     17 H5         -2.1960    1.0880    1.5157 HC        1 <0>        0.03844
     18 H6         -3.3168   -0.2422    1.5576 HC        1 <0>        0.03844
     19 H7         -1.1932    0.4212   -2.9500 HC        1 <0>        0.03501
     20 H8         -0.2626    1.8211   -2.4835 HC        1 <0>        0.03501
     21 H9         -1.1424   -0.4746    2.8939 HC        1 <0>        0.04146
     22 H10        -1.7450   -1.8399    2.0082 HC        1 <0>        0.04146
     23 H11         0.1233   -1.0714   -1.6281 HC        1 <0>        0.03631
     24 H12         1.1235   -0.1070   -2.6521 HC        1 <0>        0.03631
     25 H13         0.1243    1.1224    0.9678 HC        1 <0>        0.05664
     26 H14         1.5749    0.4355    1.6014 HC        1 <0>        0.05664
     27 H15        -0.0888   -1.6700    0.2996 H1        1 <0>        0.03626
     28 H16         2.6837    1.9709    0.0565 HC        1 <0>        0.03487
     29 H17         1.2141    2.4411   -0.8189 HC        1 <0>        0.03487
     30 H18         2.5878    1.7461   -1.7008 HC        1 <0>        0.03487
     31 H19         3.3043   -0.4492    0.2309 HC        1 <0>        0.03487
     32 H20         3.1482   -0.5917   -1.5306 HC        1 <0>        0.03487
     33 H21         2.2433   -1.6875   -0.4682 HC        1 <0>        0.03487
     34 H22         0.4427   -2.6443    2.2037 HO        1 <0>        0.39328
@<TRIPOS>BOND
     1    1    2 1
     2    1    3 1
     3    2    4 1
     4    3    5 1
     5    4    6 1
     6    5    8 1
     7    6    9 1
     8    7    8 1
     9    7    9 1
    10    8   12 1
    11    9   10 1
    12    9   11 1
    13    1   13 1
    14    1   14 1
    15    2   15 1
    16    2   16 1
    17    3   17 1
    18    3   18 1
    19    4   19 1
    20    4   20 1
    21    5   21 1
    22    5   22 1
    23    6   23 1
    24    6   24 1
    25    7   25 1
    26    7   26 1
    27    8   27 1
    28   10   28 1
    29   10   29 1
    30   10   30 1
    31   11   31 1
    32   11   32 1
    33   11   33 1
    34   12   34 1
@<TRIPOS>SUBSTRUCTURE
     1 <0>         1 GROUP 0 A     ****
