@<TRIPOS>MOLECULE
AlkEthOH_c627
   26    25     1     0     0
SMALL
USER_CHARGES

@<TRIPOS>ATOM
      1 C1          0.8152   -0.4299    0.5445 CT        1 <0>       -0.12698
      2 C2          3.3217   -1.3976   -3.7112 CT        1 <0>       -0.12481
      3 C3          3.9842   -2.7157   -1.6902 CT        1 <0>       -0.12481
      4 C4          2.0673   -1.0299   -1.5592 CT        1 <0>       -0.06399
      5 C5          0.3655   -3.3963    0.7059 CT        1 <0>        0.32930
      6 C6          1.5075   -1.5489   -0.2243 CT        1 <0>        0.14929
      7 C7          2.8129   -2.0681   -2.4299 CT        1 <0>        0.15380
      8 O1         -0.5120   -4.4891    0.4755 OH        1 <0>       -0.57510
      9 O2          1.9196   -3.1138   -2.8149 OH        1 <0>       -0.56866
     10 O3          0.5451   -2.5746   -0.4423 OS        1 <0>       -0.38381
     11 H1          0.0049    0.0143   -0.0416 HC        1 <0>        0.04264
     12 H2          0.4043   -0.7986    1.4909 HC        1 <0>        0.04264
     13 H3          1.5325    0.3578    0.7998 HC        1 <0>        0.04264
     14 H4          2.5078   -0.9221   -4.2682 HC        1 <0>        0.04103
     15 H5          3.8101   -2.1274   -4.3671 HC        1 <0>        0.04103
     16 H6          4.0768   -0.6371   -3.4812 HC        1 <0>        0.04103
     17 H7          3.6401   -3.2014   -0.7694 HC        1 <0>        0.04103
     18 H8          4.4850   -3.4675   -2.3084 HC        1 <0>        0.04103
     19 H9          4.7213   -1.9698   -1.3745 HC        1 <0>        0.04103
     20 H10         1.2225   -0.6435   -2.1462 HC        1 <0>        0.05986
     21 H11         2.7380   -0.1847   -1.3576 HC        1 <0>        0.05986
     22 H12         0.0220   -2.8097    1.5658 H2        1 <0>        0.00773
     23 H13         1.3441   -3.8144    0.9586 H2        1 <0>        0.00773
     24 H14         2.3057   -1.9566    0.4041 H1        1 <0>        0.03291
     25 H15        -0.5732   -4.9892    1.3069 HO        1 <0>        0.40255
     26 H16         2.4348   -3.7257   -3.3617 HO        1 <0>        0.39103
@<TRIPOS>BOND
     1    1    6 1
     2    2    7 1
     3    3    7 1
     4    4    6 1
     5    4    7 1
     6    5    8 1
     7    5   10 1
     8    6   10 1
     9    7    9 1
    10    1   11 1
    11    1   12 1
    12    1   13 1
    13    2   14 1
    14    2   15 1
    15    2   16 1
    16    3   17 1
    17    3   18 1
    18    3   19 1
    19    4   20 1
    20    4   21 1
    21    5   22 1
    22    5   23 1
    23    6   24 1
    24    8   25 1
    25    9   26 1
@<TRIPOS>SUBSTRUCTURE
     1 <0>         1 GROUP 0 A     ****
