@<TRIPOS>MOLECULE
AlkEthOH_c686
   20    19     1     0     0
SMALL
USER_CHARGES

@<TRIPOS>ATOM
      1 C1         -0.6105    1.6354    1.9354 CT        1 <0>       -0.13143
      2 C2          0.5591    0.6419   -0.0622 CT        1 <0>       -0.10772
      3 C3          0.2232   -1.7653   -0.9240 CT        1 <0>        0.13592
      4 C4         -0.7351    0.6812    0.7544 CT        1 <0>        0.14236
      5 C5          0.5189   -0.3068   -1.2693 CT        1 <0>        0.14467
      6 O1          0.1839   -2.5543   -2.1065 OH        1 <0>       -0.58755
      7 O2         -1.8023    1.1188   -0.0811 OH        1 <0>       -0.60188
      8 O3          1.7981   -0.2354   -1.9048 OH        1 <0>       -0.59208
      9 H1         -0.3635    2.6486    1.6040 HC        1 <0>        0.04456
     10 H2          0.1715    1.2943    2.6224 HC        1 <0>        0.04456
     11 H3         -1.5414    1.6700    2.5121 HC        1 <0>        0.04456
     12 H4          0.7785    1.6487   -0.4438 HC        1 <0>        0.05611
     13 H5          1.4063    0.3851    0.5866 HC        1 <0>        0.05611
     14 H6         -0.7516   -1.8537   -0.4331 H1        1 <0>        0.02931
     15 H7          0.9890   -2.1750   -0.2587 H1        1 <0>        0.02931
     16 H8         -0.9820   -0.3188    1.1259 H1        1 <0>        0.03094
     17 H9         -0.2180    0.0496   -1.9978 H1        1 <0>        0.06616
     18 H10        -0.0062   -3.4647   -1.8286 HO        1 <0>        0.39710
     19 H11        -2.6042    1.1071    0.4647 HO        1 <0>        0.40059
     20 H12         1.9176    0.6879   -2.1712 HO        1 <0>        0.39840
@<TRIPOS>BOND
     1    1    4 1
     2    2    4 1
     3    2    5 1
     4    3    5 1
     5    3    6 1
     6    4    7 1
     7    5    8 1
     8    1    9 1
     9    1   10 1
    10    1   11 1
    11    2   12 1
    12    2   13 1
    13    3   14 1
    14    3   15 1
    15    4   16 1
    16    5   17 1
    17    6   18 1
    18    7   19 1
    19    8   20 1
@<TRIPOS>SUBSTRUCTURE
     1 <0>         1 GROUP 0 A     ****
