@<TRIPOS>MOLECULE
AlkEthOH_r779
   29    29     1     0     0
SMALL
USER_CHARGES

@<TRIPOS>ATOM
      1 C1          1.0800   -0.1651    1.8012 CT        1 <0>       -0.06991
      2 C2          1.4714    1.2997    1.5777 CT        1 <0>       -0.09844
      3 C3          1.0459   -1.0126    0.5202 CT        1 <0>       -0.05932
      4 C4         -1.3027   -0.1192   -0.2077 CT        1 <0>       -0.13046
      5 C5          0.4775    2.1010    0.7471 CT        1 <0>        0.13133
      6 C6         -0.8274    1.1108   -1.0010 CT        1 <0>        0.15560
      7 C7         -0.3651   -1.3325   -0.0185 CT        1 <0>        0.16227
      8 C8         -0.7455    0.8692   -2.5032 CT        1 <0>       -0.09284
      9 C9         -0.2526   -2.1834   -1.2896 CT        1 <0>       -0.12514
     10 O1          0.4451    1.5964   -0.5826 OS        1 <0>       -0.41972
     11 O2         -1.0266   -2.1643    0.9567 OH        1 <0>       -0.60767
     12 H1          1.8389   -0.5967    2.4673 HC        1 <0>        0.04554
     13 H2          0.1333   -0.2233    2.3493 HC        1 <0>        0.04554
     14 H3          1.5820    1.7828    2.5556 HC        1 <0>        0.04640
     15 H4          2.4551    1.3285    1.0926 HC        1 <0>        0.04640
     16 H5          1.6724   -0.5645   -0.2596 HC        1 <0>        0.05671
     17 H6          1.5244   -1.9709    0.7695 HC        1 <0>        0.05671
     18 H7         -1.5973    0.2221    0.7941 HC        1 <0>        0.04804
     19 H8         -2.2505   -0.4683   -0.6420 HC        1 <0>        0.04804
     20 H9         -0.5103    2.1236    1.2205 H1        1 <0>        0.03800
     21 H10         0.8249    3.1382    0.6860 H1        1 <0>        0.03800
     22 H11        -1.5647    1.9107   -0.8565 H1        1 <0>        0.02664
     23 H12        -0.0244    0.0797   -2.7149 HC        1 <0>        0.04504
     24 H13        -0.4308    1.7811   -3.0106 HC        1 <0>        0.04504
     25 H14        -1.7210    0.5696   -2.8861 HC        1 <0>        0.04504
     26 H15        -1.2472   -2.4066   -1.6659 HC        1 <0>        0.04330
     27 H16         0.2640   -3.1115   -1.0603 HC        1 <0>        0.04330
     28 H17         0.3053   -1.6358   -2.0444 HC        1 <0>        0.04330
     29 H18        -1.9017   -2.3459    0.5922 HO        1 <0>        0.39326
@<TRIPOS>BOND
     1    1    2 1
     2    1    3 1
     3    2    5 1
     4    3    7 1
     5    4    6 1
     6    4    7 1
     7    5   10 1
     8    6    8 1
     9    6   10 1
    10    7    9 1
    11    7   11 1
    12    1   12 1
    13    1   13 1
    14    2   14 1
    15    2   15 1
    16    3   16 1
    17    3   17 1
    18    4   18 1
    19    4   19 1
    20    5   20 1
    21    5   21 1
    22    6   22 1
    23    8   23 1
    24    8   24 1
    25    8   25 1
    26    9   26 1
    27    9   27 1
    28    9   28 1
    29   11   29 1
@<TRIPOS>SUBSTRUCTURE
     1 <0>         1 GROUP 0 A     ****
