@<TRIPOS>MOLECULE
AlkEthOH_r692
   25    25     1     0     0
SMALL
USER_CHARGES

@<TRIPOS>ATOM
      1 C1          1.5383   -1.4220    0.9508 CT        1 <0>       -0.06705
      2 C2          1.4799   -1.4508   -0.5785 CT        1 <0>       -0.11261
      3 C3          1.4552   -0.0219    1.5680 CT        1 <0>       -0.11915
      4 C4          0.0966   -1.7823   -1.1404 CT        1 <0>        0.15000
      5 C5          0.1447    0.7161    1.3008 CT        1 <0>        0.35183
      6 C6         -0.9280    0.3895   -0.8393 CT        1 <0>        0.53298
      7 C7         -2.3020    0.9502   -0.4411 CT        1 <0>       -0.10879
      8 O1         -0.9814   -1.0243   -0.6032 OS        1 <0>       -0.44612
      9 O2          0.0814    1.0643   -0.0795 OS        1 <0>       -0.47041
     10 O3          0.1496    1.9020    2.0939 OH        1 <0>       -0.60734
     11 O4         -0.7344    0.6793   -2.2315 OH        1 <0>       -0.60888
     12 H1          0.7665   -2.0703    1.3825 HC        1 <0>        0.04226
     13 H2          2.5020   -1.8484    1.2578 HC        1 <0>        0.04226
     14 H3          1.8491   -0.5063   -0.9933 HC        1 <0>        0.05634
     15 H4          2.1697   -2.2236   -0.9413 HC        1 <0>        0.05634
     16 H5          1.6030   -0.1094    2.6521 HC        1 <0>        0.05413
     17 H6          2.2951    0.5813    1.1986 HC        1 <0>        0.05413
     18 H7          0.0984   -1.7039   -2.2335 H1        1 <0>        0.05659
     19 H8         -0.1271   -2.8310   -0.9137 H1        1 <0>        0.05659
     20 H9         -0.6983    0.0990    1.6315 H2        1 <0>        0.05516
     21 H10        -2.3169    2.0254   -0.6011 HC        1 <0>        0.06203
     22 H11        -2.4911    0.7393    0.6084 HC        1 <0>        0.06203
     23 H12        -3.0749    0.4847   -1.0475 HC        1 <0>        0.06203
     24 H13         0.2197    1.6148    3.0171 HO        1 <0>        0.40787
     25 H14        -0.7711    1.6430   -2.3141 HO        1 <0>        0.43778
@<TRIPOS>BOND
     1    1    2 1
     2    1    3 1
     3    2    4 1
     4    3    5 1
     5    4    8 1
     6    5    9 1
     7    5   10 1
     8    6    7 1
     9    6    8 1
    10    6    9 1
    11    6   11 1
    12    1   12 1
    13    1   13 1
    14    2   14 1
    15    2   15 1
    16    3   16 1
    17    3   17 1
    18    4   18 1
    19    4   19 1
    20    5   20 1
    21    7   21 1
    22    7   22 1
    23    7   23 1
    24   10   24 1
    25   11   25 1
@<TRIPOS>SUBSTRUCTURE
     1 <0>         1 GROUP 0 A     ****
