@<TRIPOS>MOLECULE
AlkEthOH_r247
   23    23     1     0     0
SMALL
USER_CHARGES

@<TRIPOS>ATOM
      1 C1          0.0059    0.6842    0.8104 CT        1 <0>       -0.09411
      2 C2         -0.6783   -0.0365   -1.3287 CT        1 <0>        0.10162
      3 C3          0.1858    1.0160   -0.6591 CT        1 <0>        0.12040
      4 C4         -0.1675   -0.8414    0.8136 CT        1 <0>        0.14990
      5 C5         -0.2004    2.4419   -1.0177 CT        1 <0>       -0.11864
      6 C6         -1.2626   -1.2801    1.7852 CT        1 <0>       -0.09922
      7 C7          1.1356   -1.5766    1.1332 CT        1 <0>       -0.09922
      8 O1         -0.5691   -1.2179   -0.5189 OS        1 <0>       -0.42026
      9 O2          1.5507    0.8104   -1.0179 OH        1 <0>       -0.58760
     10 H1          0.8470    1.0065    1.4337 HC        1 <0>        0.06782
     11 H2         -0.9002    1.1687    1.1960 HC        1 <0>        0.06782
     12 H3         -1.7359    0.2488   -1.3484 H1        1 <0>        0.04887
     13 H4         -0.3541   -0.2828   -2.3440 H1        1 <0>        0.04887
     14 H5         -0.0485    2.6160   -2.0842 HC        1 <0>        0.04601
     15 H6          0.4111    3.1499   -0.4560 HC        1 <0>        0.04601
     16 H7         -1.2506    2.6185   -0.7793 HC        1 <0>        0.04601
     17 H8         -1.3608   -2.3639    1.7643 HC        1 <0>        0.04557
     18 H9         -2.2111   -0.8298    1.4984 HC        1 <0>        0.04557
     19 H10        -1.0073   -0.9637    2.7949 HC        1 <0>        0.04557
     20 H11         0.9623   -2.6506    1.1237 HC        1 <0>        0.04557
     21 H12         1.4922   -1.2796    2.1171 HC        1 <0>        0.04557
     22 H13         1.8887   -1.3281    0.3884 HC        1 <0>        0.04557
     23 H14         1.6243    1.0319   -1.9588 HO        1 <0>        0.40230
@<TRIPOS>BOND
     1    1    3 1
     2    1    4 1
     3    2    3 1
     4    2    8 1
     5    3    5 1
     6    3    9 1
     7    4    6 1
     8    4    7 1
     9    4    8 1
    10    1   10 1
    11    1   11 1
    12    2   12 1
    13    2   13 1
    14    5   14 1
    15    5   15 1
    16    5   16 1
    17    6   17 1
    18    6   18 1
    19    6   19 1
    20    7   20 1
    21    7   21 1
    22    7   22 1
    23    9   23 1
@<TRIPOS>SUBSTRUCTURE
     1 <0>         1 GROUP 0 A     ****
