@<TRIPOS>MOLECULE
AlkEthOH_r181
    9     9     1     0     0
SMALL
USER_CHARGES

@<TRIPOS>ATOM
      1 C1         -0.7540    0.7891   -0.8555 CT        1 <0>        0.33712
      2 C2          0.3643   -0.5682    0.1551 CT        1 <0>        0.51435
      3 O1          0.6434    0.5206   -0.7314 OS        1 <0>       -0.46905
      4 O2         -1.0347   -0.3771   -0.0803 OS        1 <0>       -0.46905
      5 O3          0.7809   -0.3644    1.5121 OH        1 <0>       -0.58435
      6 H1         -1.0613    1.7169   -0.3684 H2        1 <0>        0.07194
      7 H2         -1.1146    0.7178   -1.8834 H2        1 <0>        0.07194
      8 H3          0.7215   -1.5231   -0.2437 H3        1 <0>        0.10015
      9 H4          0.5333   -1.1674    1.9912 HO        1 <0>        0.42695
@<TRIPOS>BOND
     1    1    3 1
     2    1    4 1
     3    2    3 1
     4    2    4 1
     5    2    5 1
     6    1    6 1
     7    1    7 1
     8    2    8 1
     9    5    9 1
@<TRIPOS>SUBSTRUCTURE
     1 <0>         1 GROUP 0 A     ****
