@<TRIPOS>MOLECULE
AlkEthOH_c121
   24    23     1     0     0
SMALL
USER_CHARGES

@<TRIPOS>ATOM
      1 C1          2.0494   -1.2239    1.4475 CT        1 <0>       -0.12329
      2 C2         -1.9555   -0.8435   -0.8942 CT        1 <0>       -0.13456
      3 C3         -0.4720    0.1885   -2.6131 CT        1 <0>       -0.13456
      4 C4          1.3352    0.0853    1.7653 CT        1 <0>        0.10634
      5 C5         -0.0209    0.2316    1.0611 CT        1 <0>        0.35471
      6 C6         -0.9729    0.2965   -1.1721 CT        1 <0>        0.35641
      7 O1          1.1470    0.1487    3.1771 OH        1 <0>       -0.61996
      8 O2         -0.5963    1.4669    1.4761 OH        1 <0>       -0.59504
      9 O3         -1.6299    1.5583   -1.0689 OH        1 <0>       -0.58294
     10 O4          0.1957    0.1925   -0.3500 OS        1 <0>       -0.41240
     11 H1          1.4365   -2.0904    1.7179 HC        1 <0>        0.04778
     12 H2          2.3115   -1.2932    0.3877 HC        1 <0>        0.04778
     13 H3          2.9700   -1.3028    2.0364 HC        1 <0>        0.04778
     14 H4         -2.3342   -0.7951    0.1327 HC        1 <0>        0.05153
     15 H5         -1.4754   -1.8220   -0.9974 HC        1 <0>        0.05153
     16 H6         -2.7996   -0.8186   -1.5911 HC        1 <0>        0.05153
     17 H7          0.2346    0.9976   -2.8331 HC        1 <0>        0.05153
     18 H8          0.0562   -0.7559   -2.7835 HC        1 <0>        0.05153
     19 H9         -1.2942    0.2752   -3.3316 HC        1 <0>        0.05153
     20 H10         1.9919    0.9141    1.4754 H1        1 <0>        0.06249
     21 H11        -0.6695   -0.5911    1.3794 H2        1 <0>        0.03868
     22 H12         2.0307    0.1174    3.5747 HO        1 <0>        0.41178
     23 H13        -0.7016    1.4260    2.4414 HO        1 <0>        0.42060
     24 H14        -2.3489    1.5813   -1.7223 HO        1 <0>        0.39922
@<TRIPOS>BOND
     1    1    4 1
     2    2    6 1
     3    3    6 1
     4    4    5 1
     5    4    7 1
     6    5    8 1
     7    5   10 1
     8    6    9 1
     9    6   10 1
    10    1   11 1
    11    1   12 1
    12    1   13 1
    13    2   14 1
    14    2   15 1
    15    2   16 1
    16    3   17 1
    17    3   18 1
    18    3   19 1
    19    4   20 1
    20    5   21 1
    21    7   22 1
    22    8   23 1
    23    9   24 1
@<TRIPOS>SUBSTRUCTURE
     1 <0>         1 GROUP 0 A     ****
