@<TRIPOS>MOLECULE
AlkEthOH_r327
   33    33     1     0     0
SMALL
USER_CHARGES

@<TRIPOS>ATOM
      1 C1          0.2057   -1.8227    1.0833 CT        1 <0>       -0.07179
      2 C2          1.3917   -0.9526    1.4837 CT        1 <0>       -0.07179
      3 C3         -0.1044   -1.7440   -0.4075 CT        1 <0>       -0.06512
      4 C4          1.0875    0.5377    1.5840 CT        1 <0>       -0.06512
      5 C5         -0.8209    0.7657   -0.1108 CT        1 <0>       -0.05504
      6 C6         -1.0301   -0.5884   -0.8452 CT        1 <0>       -0.04219
      7 C7          0.5899    1.2616    0.3082 CT        1 <0>       -0.04219
      8 C8         -2.5010   -1.0156   -0.5967 CT        1 <0>       -0.08887
      9 C9         -0.8868   -0.4025   -2.3729 CT        1 <0>       -0.08887
     10 C10         1.6308    1.2008   -0.8175 CT        1 <0>       -0.08887
     11 C11         0.4374    2.7600    0.6914 CT        1 <0>       -0.08887
     12 H1          0.4758   -2.8624    1.3098 HC        1 <0>        0.03759
     13 H2         -0.6740   -1.5951    1.6946 HC        1 <0>        0.03759
     14 H3          1.7315   -1.2843    2.4737 HC        1 <0>        0.03759
     15 H4          2.2382   -1.1244    0.8088 HC        1 <0>        0.03759
     16 H5          0.8363   -1.7220   -0.9700 HC        1 <0>        0.03617
     17 H6         -0.5731   -2.6937   -0.7017 HC        1 <0>        0.03617
     18 H7          0.3531    0.6809    2.3888 HC        1 <0>        0.03617
     19 H8          2.0048    1.0309    1.9348 HC        1 <0>        0.03617
     20 H9         -1.2873    1.5447   -0.7321 HC        1 <0>        0.03668
     21 H10        -1.4316    0.7556    0.8048 HC        1 <0>        0.03668
     22 H11        -3.1508   -0.2080   -0.9025 HC        1 <0>        0.03336
     23 H12        -2.6270   -1.2205    0.4569 HC        1 <0>        0.03336
     24 H13        -2.7052   -1.9029   -1.1790 HC        1 <0>        0.03336
     25 H14        -1.5327    0.4065   -2.6899 HC        1 <0>        0.03336
     26 H15        -1.1746   -1.3220   -2.8666 HC        1 <0>        0.03336
     27 H16         0.1445   -0.1654   -2.6022 HC        1 <0>        0.03336
     28 H17         1.2477    1.7173   -1.6931 HC        1 <0>        0.03336
     29 H18         1.8325    0.1633   -1.0684 HC        1 <0>        0.03336
     30 H19         2.5490    1.6790   -0.4877 HC        1 <0>        0.03336
     31 H20         0.0904    3.3015   -0.1761 HC        1 <0>        0.03336
     32 H21         1.4006    3.1320    1.0079 HC        1 <0>        0.03336
     33 H22        -0.2794    2.8363    1.4956 HC        1 <0>        0.03336
@<TRIPOS>BOND
     1    1    2 1
     2    1    3 1
     3    2    4 1
     4    3    6 1
     5    4    7 1
     6    5    6 1
     7    5    7 1
     8    6    8 1
     9    6    9 1
    10    7   10 1
    11    7   11 1
    12    1   12 1
    13    1   13 1
    14    2   14 1
    15    2   15 1
    16    3   16 1
    17    3   17 1
    18    4   18 1
    19    4   19 1
    20    5   20 1
    21    5   21 1
    22    8   22 1
    23    8   23 1
    24    8   24 1
    25    9   25 1
    26    9   26 1
    27    9   27 1
    28   10   28 1
    29   10   29 1
    30   10   30 1
    31   11   31 1
    32   11   32 1
    33   11   33 1
@<TRIPOS>SUBSTRUCTURE
     1 <0>         1 GROUP 0 A     ****
