@<TRIPOS>MOLECULE
AlkEthOH_c734
   22    21     1     0     0
SMALL
USER_CHARGES

@<TRIPOS>ATOM
      1 C1         -0.4869   -0.8696    0.4551 CT        1 <0>       -0.08683
      2 C2         -2.3361   -2.4381    2.3569 CT        1 <0>       -0.12918
      3 C3         -0.9868    0.4761    2.5129 CT        1 <0>       -0.08447
      4 C4         -0.9359    0.6184    4.0291 CT        1 <0>        0.13093
      5 C5         -0.3498   -0.8223    1.9838 CT        1 <0>       -0.05728
      6 C6         -0.8803   -2.1073    2.6613 CT        1 <0>        0.14260
      7 O1         -1.5334    1.8573    4.3910 OH        1 <0>       -0.60253
      8 O2         -0.0923   -3.2280    2.2539 OH        1 <0>       -0.60227
      9 H1         -1.5354   -0.9204    0.1448 HC        1 <0>        0.03978
     10 H2         -0.0522    0.0291    0.0038 HC        1 <0>        0.03978
     11 H3          0.0380   -1.7323    0.0329 HC        1 <0>        0.03978
     12 H4         -2.5189   -2.5307    1.2831 HC        1 <0>        0.04424
     13 H5         -2.6513   -3.3615    2.8531 HC        1 <0>        0.04424
     14 H6         -2.9884   -1.6471    2.7446 HC        1 <0>        0.04424
     15 H7         -0.4711    1.3382    2.0683 HC        1 <0>        0.05727
     16 H8         -2.0268    0.5656    2.1750 HC        1 <0>        0.05727
     17 H9          0.0981    0.6143    4.3875 H1        1 <0>        0.02118
     18 H10        -1.4922   -0.1817    4.5252 H1        1 <0>        0.02118
     19 H11         0.7290   -0.7732    2.1887 HC        1 <0>        0.06040
     20 H12        -0.7623   -2.0282    3.7473 H1        1 <0>        0.02329
     21 H13        -1.4857    1.9181    5.3585 HO        1 <0>        0.39872
     22 H14        -0.4072   -3.9844    2.7706 HO        1 <0>        0.39766
@<TRIPOS>BOND
     1    1    5 1
     2    2    6 1
     3    3    4 1
     4    3    5 1
     5    4    7 1
     6    5    6 1
     7    6    8 1
     8    1    9 1
     9    1   10 1
    10    1   11 1
    11    2   12 1
    12    2   13 1
    13    2   14 1
    14    3   15 1
    15    3   16 1
    16    4   17 1
    17    4   18 1
    18    5   19 1
    19    6   20 1
    20    7   21 1
    21    8   22 1
@<TRIPOS>SUBSTRUCTURE
     1 <0>         1 GROUP 0 A     ****
