@<TRIPOS>MOLECULE
AlkEthOH_c327
   18    17     1     0     0
SMALL
USER_CHARGES

@<TRIPOS>ATOM
      1 C1          0.2110    0.8208   -0.6920 CT        1 <0>       -0.08965
      2 C2         -0.3105    3.1803   -1.3353 CT        1 <0>       -0.08965
      3 C3         -0.1105    1.6878    2.2714 CT        1 <0>       -0.13026
      4 C4         -0.4527    2.1211   -0.2344 CT        1 <0>       -0.06227
      5 C5          0.1204    2.6388    1.1017 CT        1 <0>        0.14360
      6 O1         -0.5091    3.8822    1.4168 OH        1 <0>       -0.60360
      7 H1          1.2889    0.9547   -0.8331 HC        1 <0>        0.03656
      8 H2          0.0573    0.0171    0.0344 HC        1 <0>        0.03656
      9 H3         -0.2141    0.4799   -1.6424 HC        1 <0>        0.03656
     10 H4          0.7409    3.4218   -1.5227 HC        1 <0>        0.03656
     11 H5         -0.8125    4.1102   -1.0465 HC        1 <0>        0.03656
     12 H6         -0.7534    2.8350   -2.2757 HC        1 <0>        0.03656
     13 H7         -1.1717    1.4665    2.4144 HC        1 <0>        0.04228
     14 H8          0.4121    0.7396    2.1039 HC        1 <0>        0.04228
     15 H9          0.2916    2.1071    3.2001 HC        1 <0>        0.04228
     16 H10        -1.5276    1.9360   -0.1076 HC        1 <0>        0.05744
     17 H11         1.1946    2.8315    0.9965 H1        1 <0>        0.03138
     18 H12        -0.0882    4.2028    2.2283 HO        1 <0>        0.39681
@<TRIPOS>BOND
     1    1    4 1
     2    2    4 1
     3    3    5 1
     4    4    5 1
     5    5    6 1
     6    1    7 1
     7    1    8 1
     8    1    9 1
     9    2   10 1
    10    2   11 1
    11    2   12 1
    12    3   13 1
    13    3   14 1
    14    3   15 1
    15    4   16 1
    16    5   17 1
    17    6   18 1
@<TRIPOS>SUBSTRUCTURE
     1 <0>         1 GROUP 0 A     ****
