@<TRIPOS>MOLECULE
AlkEthOH_r690
   30    30     1     0     0
SMALL
USER_CHARGES

@<TRIPOS>ATOM
      1 C1          2.1165   -0.5431   -0.7208 CT        1 <0>       -0.05577
      2 C2          1.6194   -1.4650    0.3941 CT        1 <0>       -0.11105
      3 C3          1.1303    0.5037   -1.2525 CT        1 <0>       -0.12326
      4 C4          0.3481   -2.2410    0.0620 CT        1 <0>        0.14282
      5 C5          0.3896    1.3594   -0.2067 CT        1 <0>        0.36502
      6 C6         -1.2504   -0.4146    0.3957 CT        1 <0>        0.36044
      7 C7          1.3912    2.2249    0.5700 CT        1 <0>       -0.11593
      8 C8         -1.7922   -1.0029    1.7072 CT        1 <0>       -0.10405
      9 C9         -2.4383    0.1839   -0.3678 CT        1 <0>       -0.10405
     10 O1         -0.7244   -1.4537   -0.4377 OS        1 <0>       -0.44383
     11 O2         -0.3157    0.6011    0.7800 OS        1 <0>       -0.44064
     12 O3         -0.4741    2.2473   -0.9235 OH        1 <0>       -0.62408
     13 H1          3.0176   -0.0303   -0.3622 HC        1 <0>        0.03451
     14 H2          2.4443   -1.1601   -1.5673 HC        1 <0>        0.03451
     15 H3          2.4120   -2.1871    0.6272 HC        1 <0>        0.05185
     16 H4          1.4794   -0.8877    1.3137 HC        1 <0>        0.05185
     17 H5          1.6766    1.1724   -1.9328 HC        1 <0>        0.05813
     18 H6          0.4031    0.0136   -1.9111 HC        1 <0>        0.05813
     19 H7          0.5819   -2.9700   -0.7223 H1        1 <0>        0.04339
     20 H8          0.0161   -2.8252    0.9265 H1        1 <0>        0.04339
     21 H9          0.8590    2.8235    1.3038 HC        1 <0>        0.05057
     22 H10         1.9151    2.8795   -0.1206 HC        1 <0>        0.05057
     23 H11         2.1073    1.5835    1.0758 HC        1 <0>        0.05057
     24 H12        -0.9731   -1.4361    2.2733 HC        1 <0>        0.05361
     25 H13        -2.5248   -1.7719    1.4815 HC        1 <0>        0.05361
     26 H14        -2.2599   -0.2147    2.2895 HC        1 <0>        0.05361
     27 H15        -2.0897    0.6106   -1.3043 HC        1 <0>        0.05361
     28 H16        -2.9014    0.9614    0.2337 HC        1 <0>        0.05361
     29 H17        -3.1666   -0.5958   -0.5742 HC        1 <0>        0.05361
     30 H18         0.0991    2.7817   -1.4919 HO        1 <0>        0.40525
@<TRIPOS>BOND
     1    1    2 1
     2    1    3 1
     3    2    4 1
     4    3    5 1
     5    4   10 1
     6    5    7 1
     7    5   11 1
     8    5   12 1
     9    6    8 1
    10    6    9 1
    11    6   10 1
    12    6   11 1
    13    1   13 1
    14    1   14 1
    15    2   15 1
    16    2   16 1
    17    3   17 1
    18    3   18 1
    19    4   19 1
    20    4   20 1
    21    7   21 1
    22    7   22 1
    23    7   23 1
    24    8   24 1
    25    8   25 1
    26    8   26 1
    27    9   27 1
    28    9   28 1
    29    9   29 1
    30   12   30 1
@<TRIPOS>SUBSTRUCTURE
     1 <0>         1 GROUP 0 A     ****
