@<TRIPOS>MOLECULE
AlkEthOH_r1140
   21    21     1     0     0
SMALL
USER_CHARGES

@<TRIPOS>ATOM
      1 C1         -0.2400    1.0765    1.7660 CT        1 <0>       -0.12226
      2 C2         -1.4854    1.0576    0.8804 CT        1 <0>        0.14129
      3 C3          0.7661   -0.0272    1.4413 CT        1 <0>        0.14252
      4 C4         -1.2513    0.1711   -1.3173 CT        1 <0>        0.33056
      5 C5          0.9034   -0.7361   -0.8599 CT        1 <0>        0.33847
      6 C6          1.6134   -2.0738   -0.6853 CT        1 <0>       -0.11640
      7 O1         -1.1301    1.3163   -0.4754 OS        1 <0>       -0.43779
      8 O2          1.3293    0.1857    0.1485 OS        1 <0>       -0.43952
      9 O3         -0.5054   -0.9701   -0.8982 OS        1 <0>       -0.47703
     10 H1          0.2584    2.0456    1.6395 HC        1 <0>        0.05628
     11 H2         -0.5458    0.9871    2.8142 HC        1 <0>        0.05628
     12 H3         -2.0389    0.1173    0.9912 H1        1 <0>        0.04362
     13 H4         -2.1530    1.8665    1.1960 H1        1 <0>        0.04362
     14 H5          1.5909    0.0288    2.1594 H1        1 <0>        0.04483
     15 H6          0.3082   -1.0166    1.5480 H1        1 <0>        0.04483
     16 H7         -2.3070   -0.1170   -1.3724 H2        1 <0>        0.06161
     17 H8         -0.9427    0.4562   -2.3292 H2        1 <0>        0.06161
     18 H9          1.2187   -0.3197   -1.8241 H2        1 <0>        0.07073
     19 H10         1.3279   -2.5252    0.2645 HC        1 <0>        0.05225
     20 H11         2.6930   -1.9261   -0.6972 HC        1 <0>        0.05225
     21 H12         1.3389   -2.7490   -1.4955 HC        1 <0>        0.05225
@<TRIPOS>BOND
     1    1    2 1
     2    1    3 1
     3    2    7 1
     4    3    8 1
     5    4    7 1
     6    4    9 1
     7    5    6 1
     8    5    8 1
     9    5    9 1
    10    1   10 1
    11    1   11 1
    12    2   12 1
    13    2   13 1
    14    3   14 1
    15    3   15 1
    16    4   16 1
    17    4   17 1
    18    5   18 1
    19    6   19 1
    20    6   20 1
    21    6   21 1
@<TRIPOS>SUBSTRUCTURE
     1 <0>         1 GROUP 0 A     ****
