@<TRIPOS>MOLECULE
AlkEthOH_r1090
   27    27     1     0     0
SMALL
USER_CHARGES

@<TRIPOS>ATOM
      1 C1          2.0270   -0.8412   -0.6411 CT        1 <0>       -0.14411
      2 C2          1.0475   -1.7815   -1.3385 CT        1 <0>        0.13858
      3 C3          1.7467   -0.5697    0.8390 CT        1 <0>        0.14698
      4 C4         -0.8581   -0.3051   -1.4938 CT        1 <0>        0.13624
      5 C5         -0.4989    0.9038   -0.6039 CT        1 <0>       -0.10581
      6 C6         -0.4112    0.5911    0.9173 CT        1 <0>        0.35622
      7 C7         -1.4334    2.0791   -0.9334 CT        1 <0>       -0.08895
      8 C8         -1.7936    0.3014    1.5185 CT        1 <0>       -0.11054
      9 O1         -0.3249   -1.5471   -1.0492 OS        1 <0>       -0.39933
     10 O2          0.3735   -0.5747    1.2080 OS        1 <0>       -0.43830
     11 O3          0.1253    1.7439    1.5772 OH        1 <0>       -0.63174
     12 H1          3.0453   -1.2371   -0.7447 HC        1 <0>        0.04700
     13 H2          2.0582    0.1064   -1.1855 HC        1 <0>        0.04700
     14 H3          1.2014   -1.7581   -2.4235 H1        1 <0>        0.04475
     15 H4          1.2590   -2.8062   -1.0135 H1        1 <0>        0.04475
     16 H5          2.2086   -1.3787    1.4167 H1        1 <0>        0.04987
     17 H6          2.2346    0.3557    1.1648 H1        1 <0>        0.04987
     18 H7         -1.9466   -0.4343   -1.4972 H1        1 <0>        0.04646
     19 H8         -0.5659   -0.1219   -2.5351 H1        1 <0>        0.04646
     20 H9          0.4864    1.2673   -0.9085 HC        1 <0>        0.06534
     21 H10        -2.4512    1.8151   -0.6641 HC        1 <0>        0.04121
     22 H11        -1.3813    2.2921   -1.9964 HC        1 <0>        0.04121
     23 H12        -1.1226    2.9537   -0.3707 HC        1 <0>        0.04121
     24 H13        -1.6894    0.0886    2.5784 HC        1 <0>        0.05448
     25 H14        -2.2327   -0.5566    1.0177 HC        1 <0>        0.05448
     26 H15        -2.4349    1.1677    1.3837 HC        1 <0>        0.05448
     27 H16         0.1677    1.5200    2.5176 HO        1 <0>        0.41219
@<TRIPOS>BOND
     1    1    2 1
     2    1    3 1
     3    2    9 1
     4    3   10 1
     5    4    5 1
     6    4    9 1
     7    5    6 1
     8    5    7 1
     9    6    8 1
    10    6   10 1
    11    6   11 1
    12    1   12 1
    13    1   13 1
    14    2   14 1
    15    2   15 1
    16    3   16 1
    17    3   17 1
    18    4   18 1
    19    4   19 1
    20    5   20 1
    21    7   21 1
    22    7   22 1
    23    7   23 1
    24    8   24 1
    25    8   25 1
    26    8   26 1
    27   11   27 1
@<TRIPOS>SUBSTRUCTURE
     1 <0>         1 GROUP 0 A     ****
