@<TRIPOS>MOLECULE
AlkEthOH_r1115
   23    23     1     0     0
SMALL
USER_CHARGES

@<TRIPOS>ATOM
      1 C1         -0.0271    0.8726    0.6620 CT        1 <0>       -0.13617
      2 C2         -0.6455    0.5085    2.0058 CT        1 <0>        0.13113
      3 C3         -1.4723    2.7007    2.1985 CT        1 <0>        0.33025
      4 C4         -0.7568    2.0564    0.0015 CT        1 <0>        0.15324
      5 C5         -1.4727    3.9050    3.1265 CT        1 <0>       -0.08568
      6 C6         -0.0293    2.5576   -1.2543 CT        1 <0>       -0.10322
      7 C7         -2.1741    1.6292   -0.4005 CT        1 <0>       -0.10322
      8 O1         -0.7143    1.6686    2.8310 OS        1 <0>       -0.43836
      9 O2         -0.9106    3.1200    0.9529 OS        1 <0>       -0.43315
     10 H1          1.0121    1.1706    0.8564 HC        1 <0>        0.06098
     11 H2         -0.0001    0.0002   -0.0002 HC        1 <0>        0.06098
     12 H3         -1.6461    0.0769    1.8942 H1        1 <0>        0.04951
     13 H4         -0.0234   -0.2326    2.5176 H1        1 <0>        0.04951
     14 H5         -2.5088    2.3712    2.0606 H2        1 <0>        0.03004
     15 H6         -0.4525    4.2583    3.2846 HC        1 <0>        0.05480
     16 H7         -1.9045    3.6357    4.0917 HC        1 <0>        0.05480
     17 H8         -2.0614    4.7144    2.6918 HC        1 <0>        0.05480
     18 H9         -0.5802    3.3897   -1.6828 HC        1 <0>        0.04496
     19 H10         0.0344    1.7522   -1.9801 HC        1 <0>        0.04496
     20 H11         0.9711    2.8843   -0.9857 HC        1 <0>        0.04496
     21 H12        -2.6867    2.4664   -0.8663 HC        1 <0>        0.04496
     22 H13        -2.7226    1.3157    0.4835 HC        1 <0>        0.04496
     23 H14        -2.1178    0.8027   -1.1036 HC        1 <0>        0.04496
@<TRIPOS>BOND
     1    1    2 1
     2    1    4 1
     3    2    8 1
     4    3    5 1
     5    3    8 1
     6    3    9 1
     7    4    6 1
     8    4    7 1
     9    4    9 1
    10    1   10 1
    11    1   11 1
    12    2   12 1
    13    2   13 1
    14    3   14 1
    15    5   15 1
    16    5   16 1
    17    5   17 1
    18    6   18 1
    19    6   19 1
    20    6   20 1
    21    7   21 1
    22    7   22 1
    23    7   23 1
@<TRIPOS>SUBSTRUCTURE
     1 <0>         1 GROUP 0 A     ****
