@<TRIPOS>MOLECULE
AlkEthOH_c980
   27    26     1     0     0
SMALL
USER_CHARGES

@<TRIPOS>ATOM
      1 C1          2.7918    1.3944   -3.3200 CT        1 <0>       -0.09339
      2 C2          0.8247   -0.8476   -3.8398 CT        1 <0>       -0.10606
      3 C3         -0.3492    0.9324   -0.2306 CT        1 <0>       -0.10729
      4 C4         -2.6322    0.3048   -1.0694 CT        1 <0>       -0.10729
      5 C5         -0.8166   -1.4278   -0.9694 CT        1 <0>       -0.10729
      6 C6          1.2877    1.5210   -3.1172 CT        1 <0>       -0.09191
      7 C7          0.6395    0.1877   -2.7386 CT        1 <0>        0.13778
      8 C8         -1.1323    0.0492   -1.2009 CT        1 <0>        0.15186
      9 O1         -0.7550    0.3897   -2.5267 OS        1 <0>       -0.42138
     10 H1          3.2770    1.0108   -2.4168 HC        1 <0>        0.03305
     11 H2          3.2434    2.3592   -3.5707 HC        1 <0>        0.03305
     12 H3          3.0046    0.7005   -4.1395 HC        1 <0>        0.03305
     13 H4          0.3981   -0.4950   -4.7855 HC        1 <0>        0.04107
     14 H5          1.8829   -1.0782   -3.9955 HC        1 <0>        0.04107
     15 H6          0.3010   -1.7755   -3.5857 HC        1 <0>        0.04107
     16 H7          0.7278    0.7519   -0.3219 HC        1 <0>        0.04238
     17 H8         -0.5400    1.9956   -0.4092 HC        1 <0>        0.04238
     18 H9         -0.6141    0.7029    0.8078 HC        1 <0>        0.04238
     19 H10        -3.1979   -0.3268   -1.7638 HC        1 <0>        0.04238
     20 H11        -2.8754    1.3419   -1.3273 HC        1 <0>        0.04238
     21 H12        -2.9880    0.1077   -0.0530 HC        1 <0>        0.04238
     22 H13        -1.3782   -2.0615   -1.6653 HC        1 <0>        0.04238
     23 H14         0.2506   -1.6368   -1.0960 HC        1 <0>        0.04238
     24 H15        -1.1146   -1.7365    0.0392 HC        1 <0>        0.04238
     25 H16         0.8362    1.9066   -4.0387 HC        1 <0>        0.05101
     26 H17         1.1108    2.2598   -2.3262 HC        1 <0>        0.05101
     27 H18         1.0733   -0.1866   -1.8044 H1        1 <0>        0.03917
@<TRIPOS>BOND
     1    1    6 1
     2    2    7 1
     3    3    8 1
     4    4    8 1
     5    5    8 1
     6    6    7 1
     7    7    9 1
     8    8    9 1
     9    1   10 1
    10    1   11 1
    11    1   12 1
    12    2   13 1
    13    2   14 1
    14    2   15 1
    15    3   16 1
    16    3   17 1
    17    3   18 1
    18    4   19 1
    19    4   20 1
    20    4   21 1
    21    5   22 1
    22    5   23 1
    23    5   24 1
    24    6   25 1
    25    6   26 1
    26    7   27 1
@<TRIPOS>SUBSTRUCTURE
     1 <0>         1 GROUP 0 A     ****
