@<TRIPOS>MOLECULE
AlkEthOH_r188
   26    26     1     0     0
SMALL
USER_CHARGES

@<TRIPOS>ATOM
      1 C1         -1.7909    0.8899   -1.1518 CT        1 <0>       -0.07228
      2 C2         -1.2067   -0.1901   -2.0574 CT        1 <0>       -0.10797
      3 C3         -0.8131    1.4973   -0.1466 CT        1 <0>       -0.10649
      4 C4         -0.5280   -1.3284   -1.3084 CT        1 <0>        0.13167
      5 C5         -0.3557    0.4939    0.9198 CT        1 <0>        0.12298
      6 C6          0.8326   -0.4085    0.4937 CT        1 <0>        0.16333
      7 C7          0.9472   -1.6131    1.4449 CT        1 <0>       -0.09710
      8 C8          2.1717    0.3519    0.5450 CT        1 <0>       -0.09710
      9 O1          0.7442   -0.8977   -0.8486 OS        1 <0>       -0.42039
     10 O2         -0.0013    1.2049    2.1092 OH        1 <0>       -0.59846
     11 H1         -2.1836    1.6942   -1.7860 HC        1 <0>        0.03878
     12 H2         -2.6539    0.4790   -0.6126 HC        1 <0>        0.03878
     13 H3         -2.0187   -0.5990   -2.6700 HC        1 <0>        0.05123
     14 H4         -0.4862    0.2772   -2.7401 HC        1 <0>        0.05123
     15 H5          0.0434    1.9387   -0.6680 HC        1 <0>        0.05140
     16 H6         -1.3201    2.3367    0.3476 HC        1 <0>        0.05140
     17 H7         -1.1520   -1.7404   -0.5088 H1        1 <0>        0.04464
     18 H8         -0.3397   -2.1415   -2.0178 H1        1 <0>        0.04464
     19 H9         -1.2152   -0.1357    1.1916 H1        1 <0>        0.03039
     20 H10         1.7808   -2.2340    1.1352 HC        1 <0>        0.04651
     21 H11         0.0281   -2.1874    1.4052 HC        1 <0>        0.04651
     22 H12         1.1125   -1.2551    2.4553 HC        1 <0>        0.04651
     23 H13         2.9715   -0.3142    0.2406 HC        1 <0>        0.04651
     24 H14         2.3470    0.6964    1.5582 HC        1 <0>        0.04651
     25 H15         2.1252    1.2009   -0.1282 HC        1 <0>        0.04651
     26 H16        -0.7987    1.6766    2.3906 HO        1 <0>        0.40026
@<TRIPOS>BOND
     1    1    2 1
     2    1    3 1
     3    2    4 1
     4    3    5 1
     5    4    9 1
     6    5    6 1
     7    5   10 1
     8    6    7 1
     9    6    8 1
    10    6    9 1
    11    1   11 1
    12    1   12 1
    13    2   13 1
    14    2   14 1
    15    3   15 1
    16    3   16 1
    17    4   17 1
    18    4   18 1
    19    5   19 1
    20    7   20 1
    21    7   21 1
    22    7   22 1
    23    8   23 1
    24    8   24 1
    25    8   25 1
    26   10   26 1
@<TRIPOS>SUBSTRUCTURE
     1 <0>         1 GROUP 0 A     ****
