@<TRIPOS>MOLECULE
AlkEthOH_c900
   18    17     1     0     0
SMALL
USER_CHARGES

@<TRIPOS>ATOM
      1 C1          1.2573   -1.6050    0.1201 CT        1 <0>       -0.11769
      2 C2          0.5337    1.6979   -1.2629 CT        1 <0>        0.33135
      3 C3         -1.6655   -1.1209    0.8646 CT        1 <0>        0.33135
      4 C4          0.3911   -0.3685   -0.0843 CT        1 <0>        0.33666
      5 O1          1.3009    2.5220   -0.3971 OH        1 <0>       -0.63280
      6 O2         -1.8030   -0.0207    1.7529 OH        1 <0>       -0.63280
      7 O3          0.9268    0.3292   -1.2160 OS        1 <0>       -0.42324
      8 O4         -0.9561   -0.7824   -0.3227 OS        1 <0>       -0.42324
      9 H1          1.2031   -2.2672   -0.7500 HC        1 <0>        0.05281
     10 H2          0.9109   -2.1769    0.9884 HC        1 <0>        0.05281
     11 H3          2.3027   -1.3386    0.3011 HC        1 <0>        0.05281
     12 H4          0.6637    2.0557   -2.2892 H2        1 <0>        0.04293
     13 H5         -0.5258    1.8032   -1.0072 H2        1 <0>        0.04293
     14 H6         -2.6736   -1.4193    0.5632 H2        1 <0>        0.04293
     15 H7         -1.2088   -1.9705    1.3839 H2        1 <0>        0.04293
     16 H8          0.4632    0.2766    0.7999 H2        1 <0>        0.07754
     17 H9          0.9663    3.4296   -0.4940 HO        1 <0>        0.41136
     18 H10        -2.2945   -0.3356    2.5301 HO        1 <0>        0.41136
@<TRIPOS>BOND
     1    1    4 1
     2    2    5 1
     3    2    7 1
     4    3    6 1
     5    3    8 1
     6    4    7 1
     7    4    8 1
     8    1    9 1
     9    1   10 1
    10    1   11 1
    11    2   12 1
    12    2   13 1
    13    3   14 1
    14    3   15 1
    15    4   16 1
    16    5   17 1
    17    6   18 1
@<TRIPOS>SUBSTRUCTURE
     1 <0>         1 GROUP 0 A     ****
