@<TRIPOS>MOLECULE
AlkEthOH_c860
   20    19     1     0     0
SMALL
USER_CHARGES

@<TRIPOS>ATOM
      1 C1          1.0463   -1.0493    2.2656 CT        1 <0>       -0.12412
      2 C2          1.0857    0.7447   -1.7592 CT        1 <0>       -0.11501
      3 C3         -2.3371    1.3079   -0.6411 CT        1 <0>        0.12079
      4 C4          0.5896   -1.0420    0.8162 CT        1 <0>        0.33468
      5 C5         -0.1323    0.4749   -0.8853 CT        1 <0>        0.33658
      6 O1         -0.5581   -1.8796    0.7250 OH        1 <0>       -0.62606
      7 O2         -0.9999    1.6077   -1.0198 OS        1 <0>       -0.41179
      8 O3          0.2973    0.3107    0.4679 OS        1 <0>       -0.48051
      9 H1          0.2640   -0.6471    2.9197 HC        1 <0>        0.05571
     10 H2          1.9363   -0.4260    2.3984 HC        1 <0>        0.05571
     11 H3          1.2641   -2.0674    2.6035 HC        1 <0>        0.05571
     12 H4          1.6353    1.6281   -1.4217 HC        1 <0>        0.05207
     13 H5          0.7811    0.9262   -2.7963 HC        1 <0>        0.05207
     14 H6          1.7616   -0.1165   -1.7628 HC        1 <0>        0.05207
     15 H7         -2.9587    2.1987   -0.7603 H1        1 <0>        0.03588
     16 H8         -2.3559    0.9739    0.3993 H1        1 <0>        0.03588
     17 H9         -2.7187    0.5114   -1.2844 H1        1 <0>        0.03588
     18 H10         1.3892   -1.4483    0.1862 H2        1 <0>        0.07267
     19 H11        -0.6567   -0.4158   -1.2532 H2        1 <0>        0.05199
     20 H12        -0.2904   -2.7699    1.0087 HO        1 <0>        0.40980
@<TRIPOS>BOND
     1    1    4 1
     2    2    5 1
     3    3    7 1
     4    4    6 1
     5    4    8 1
     6    5    7 1
     7    5    8 1
     8    1    9 1
     9    1   10 1
    10    1   11 1
    11    2   12 1
    12    2   13 1
    13    2   14 1
    14    3   15 1
    15    3   16 1
    16    3   17 1
    17    4   18 1
    18    5   19 1
    19    6   20 1
@<TRIPOS>SUBSTRUCTURE
     1 <0>         1 GROUP 0 A     ****
