@<TRIPOS>MOLECULE
AlkEthOH_r564
   23    23     1     0     0
SMALL
USER_CHARGES

@<TRIPOS>ATOM
      1 C1         -0.6180   -0.7515   -0.9185 CT        1 <0>       -0.13548
      2 C2         -0.4347    0.5866   -1.6280 CT        1 <0>        0.13110
      3 C3          1.4936    1.4408   -0.4936 CT        1 <0>        0.09742
      4 C4          1.5194    0.3966    0.6117 CT        1 <0>        0.09812
      5 C5         -0.6723   -0.6586    0.6240 CT        1 <0>        0.15090
      6 C6         -0.3858   -2.0344    1.2443 CT        1 <0>       -0.10190
      7 C7         -2.0737   -0.2119    1.0717 CT        1 <0>       -0.10190
      8 O1          0.9455    0.9345   -1.7063 OS        1 <0>       -0.42006
      9 O2          0.2260    0.2979    1.1946 OS        1 <0>       -0.42282
     10 H1         -1.5374   -1.2304   -1.2787 HC        1 <0>        0.05808
     11 H2          0.2086   -1.4102   -1.2159 HC        1 <0>        0.05808
     12 H3         -0.7768    0.4783   -2.6630 H1        1 <0>        0.05301
     13 H4         -1.0178    1.3985   -1.1807 H1        1 <0>        0.05301
     14 H5          0.9359    2.3350   -0.1919 H1        1 <0>        0.05610
     15 H6          2.5200    1.7453   -0.7224 H1        1 <0>        0.05610
     16 H7          1.8849   -0.5745    0.2634 H1        1 <0>        0.05513
     17 H8          2.1890    0.7435    1.4054 H1        1 <0>        0.05513
     18 H9         -0.4265   -1.9572    2.3266 HC        1 <0>        0.04333
     19 H10         0.6019   -2.3678    0.9406 HC        1 <0>        0.04333
     20 H11        -1.1310   -2.7461    0.9022 HC        1 <0>        0.04333
     21 H12        -2.1016   -0.1498    2.1549 HC        1 <0>        0.04333
     22 H13        -2.8073   -0.9346    0.7290 HC        1 <0>        0.04333
     23 H14        -2.2935    0.7615    0.6448 HC        1 <0>        0.04333
@<TRIPOS>BOND
     1    1    2 1
     2    1    5 1
     3    2    8 1
     4    3    4 1
     5    3    8 1
     6    4    9 1
     7    5    6 1
     8    5    7 1
     9    5    9 1
    10    1   10 1
    11    1   11 1
    12    2   12 1
    13    2   13 1
    14    3   14 1
    15    3   15 1
    16    4   16 1
    17    4   17 1
    18    6   18 1
    19    6   19 1
    20    6   20 1
    21    7   21 1
    22    7   22 1
    23    7   23 1
@<TRIPOS>SUBSTRUCTURE
     1 <0>         1 GROUP 0 A     ****
