@<TRIPOS>MOLECULE
AlkEthOH_r912
   32    32     1     0     0
SMALL
USER_CHARGES

@<TRIPOS>ATOM
      1 C1         -1.3351    0.5280   -1.9650 CT        1 <0>       -0.07227
      2 C2         -1.4806   -0.9375   -1.5368 CT        1 <0>       -0.07214
      3 C3         -1.9403    1.5344   -0.9780 CT        1 <0>       -0.08339
      4 C4         -0.1609   -1.7156   -1.4617 CT        1 <0>       -0.07861
      5 C5         -1.4428    1.3972    0.4588 CT        1 <0>        0.13714
      6 C6          0.9372   -1.0930   -0.5826 CT        1 <0>        0.14584
      7 C7          0.6350    0.4572    1.2709 CT        1 <0>        0.34476
      8 C8          2.1208   -2.0552   -0.4888 CT        1 <0>       -0.11369
      9 C9          0.1240    0.4398    2.7216 CT        1 <0>       -0.10882
     10 C10         2.1235    0.8366    1.3246 CT        1 <0>       -0.10882
     11 O1         -0.0218    1.4745    0.4979 OS        1 <0>       -0.44862
     12 O2          0.4408   -0.8664    0.7392 OS        1 <0>       -0.44441
     13 H1         -0.2914    0.7932   -2.1599 HC        1 <0>        0.04168
     14 H2         -1.8475    0.6591   -2.9271 HC        1 <0>        0.04168
     15 H3         -2.0128   -1.0362   -0.5862 HC        1 <0>        0.04066
     16 H4         -2.1193   -1.4464   -2.2710 HC        1 <0>        0.04066
     17 H5         -1.7019    2.5413   -1.3426 HC        1 <0>        0.04359
     18 H6         -3.0329    1.4426   -0.9856 HC        1 <0>        0.04359
     19 H7         -0.4005   -2.7184   -1.0842 HC        1 <0>        0.04303
     20 H8          0.2302   -1.8485   -2.4785 HC        1 <0>        0.04303
     21 H9         -1.8377    2.2236    1.0597 H1        1 <0>        0.03770
     22 H10        -1.8254    0.4711    0.8957 H1        1 <0>        0.03770
     23 H11         1.2814   -0.1649   -1.0485 H1        1 <0>        0.05741
     24 H12         1.8015   -2.9878   -0.0272 HC        1 <0>        0.04028
     25 H13         2.9102   -1.6101    0.1141 HC        1 <0>        0.04028
     26 H14         2.5061   -2.2631   -1.4853 HC        1 <0>        0.04028
     27 H15        -0.9283    0.1749    2.7275 HC        1 <0>        0.05191
     28 H16         0.2552    1.4240    3.1594 HC        1 <0>        0.05191
     29 H17         0.6880   -0.2916    3.2913 HC        1 <0>        0.05191
     30 H18         2.5248    0.8603    0.3163 HC        1 <0>        0.05191
     31 H19         2.6610    0.1000    1.9133 HC        1 <0>        0.05191
     32 H20         2.2284    1.8156    1.7817 HC        1 <0>        0.05191
@<TRIPOS>BOND
     1    1    2 1
     2    1    3 1
     3    2    4 1
     4    3    5 1
     5    4    6 1
     6    5   11 1
     7    6    8 1
     8    6   12 1
     9    7    9 1
    10    7   10 1
    11    7   11 1
    12    7   12 1
    13    1   13 1
    14    1   14 1
    15    2   15 1
    16    2   16 1
    17    3   17 1
    18    3   18 1
    19    4   19 1
    20    4   20 1
    21    5   21 1
    22    5   22 1
    23    6   23 1
    24    8   24 1
    25    8   25 1
    26    8   26 1
    27    9   27 1
    28    9   28 1
    29    9   29 1
    30   10   30 1
    31   10   31 1
    32   10   32 1
@<TRIPOS>SUBSTRUCTURE
     1 <0>         1 GROUP 0 A     ****
