@<TRIPOS>MOLECULE
AlkEthOH_c891
   17    16     1     0     0
SMALL
USER_CHARGES

@<TRIPOS>ATOM
      1 C1          1.2418   -0.3170    0.2592 CT        1 <0>       -0.12551
      2 C2          1.0652    2.3172    4.2121 CT        1 <0>        0.12865
      3 C3          1.7985    2.1551    2.8946 CT        1 <0>        0.11782
      4 C4          1.7322    1.0078    0.8237 CT        1 <0>        0.33027
      5 O1         -0.2463    2.8049    3.9564 OH        1 <0>       -0.59771
      6 O2          1.4543    2.0565   -0.0993 OH        1 <0>       -0.62201
      7 O3          1.1003    1.2158    2.0878 OS        1 <0>       -0.45991
      8 H1          0.1578   -0.2994    0.1082 HC        1 <0>        0.05459
      9 H2          1.7023   -0.5177   -0.7146 HC        1 <0>        0.05459
     10 H3          1.5021   -1.1465    0.9239 HC        1 <0>        0.05459
     11 H4          1.5752    3.0352    4.8616 H1        1 <0>        0.04231
     12 H5          0.9790    1.3540    4.7233 H1        1 <0>        0.04231
     13 H6          2.8147    1.7803    3.0520 H1        1 <0>        0.04706
     14 H7          1.8359    3.1073    2.3575 H1        1 <0>        0.04706
     15 H8          2.8181    0.9558    0.9622 H2        1 <0>        0.07049
     16 H9         -0.6832    2.8956    4.8183 HO        1 <0>        0.40327
     17 H10         1.9157    1.8598   -0.9317 HO        1 <0>        0.41213
@<TRIPOS>BOND
     1    1    4 1
     2    2    3 1
     3    2    5 1
     4    3    7 1
     5    4    6 1
     6    4    7 1
     7    1    8 1
     8    1    9 1
     9    1   10 1
    10    2   11 1
    11    2   12 1
    12    3   13 1
    13    3   14 1
    14    4   15 1
    15    5   16 1
    16    6   17 1
@<TRIPOS>SUBSTRUCTURE
     1 <0>         1 GROUP 0 A     ****
