@<TRIPOS>MOLECULE
AlkEthOH_c61
   25    24     1     0     0
SMALL
USER_CHARGES

@<TRIPOS>ATOM
      1 C1          2.2231    0.2412   -0.0097 CT        1 <0>       -0.12848
      2 C2         -0.3568    1.5443   -1.1422 CT        1 <0>       -0.08650
      3 C3         -1.5474    0.8417    0.9245 CT        1 <0>       -0.08650
      4 C4         -0.6501   -0.8963   -0.6863 CT        1 <0>       -0.08072
      5 C5         -0.6543   -2.1026    0.2502 CT        1 <0>        0.13118
      6 C6          0.9520    0.4922    0.7987 CT        1 <0>        0.14689
      7 C7         -0.3773    0.4812   -0.0196 CT        1 <0>       -0.03884
      8 O1         -0.9480   -3.2801   -0.4949 OH        1 <0>       -0.60372
      9 O2          1.1071    1.7336    1.4928 OH        1 <0>       -0.60274
     10 H1          2.3424    0.9746   -0.8133 HC        1 <0>        0.04419
     11 H2          3.1027    0.3518    0.6348 HC        1 <0>        0.04419
     12 H3          2.2456   -0.7631   -0.4402 HC        1 <0>        0.04419
     13 H4          0.4498    1.3595   -1.8589 HC        1 <0>        0.03989
     14 H5         -1.2976    1.5359   -1.7054 HC        1 <0>        0.03989
     15 H6         -0.2297    2.5564   -0.7441 HC        1 <0>        0.03989
     16 H7         -1.6284    0.1289    1.7529 HC        1 <0>        0.03989
     17 H8         -2.5069    0.8381    0.3969 HC        1 <0>        0.03989
     18 H9         -1.4098    1.8369    1.3625 HC        1 <0>        0.03989
     19 H10        -1.6188   -0.8660   -1.2051 HC        1 <0>        0.05740
     20 H11         0.0795   -1.0768   -1.4868 HC        1 <0>        0.05740
     21 H12        -1.4209   -2.0066    1.0233 H1        1 <0>        0.02157
     22 H13         0.3136   -2.2481    0.7373 H1        1 <0>        0.02157
     23 H14         0.8958   -0.2731    1.5810 H1        1 <0>        0.02431
     24 H15        -0.9403   -4.0168    0.1362 HO        1 <0>        0.39806
     25 H16         1.8810    1.6289    2.0652 HO        1 <0>        0.39721
@<TRIPOS>BOND
     1    1    6 1
     2    2    7 1
     3    3    7 1
     4    4    5 1
     5    4    7 1
     6    5    8 1
     7    6    7 1
     8    6    9 1
     9    1   10 1
    10    1   11 1
    11    1   12 1
    12    2   13 1
    13    2   14 1
    14    2   15 1
    15    3   16 1
    16    3   17 1
    17    3   18 1
    18    4   19 1
    19    4   20 1
    20    5   21 1
    21    5   22 1
    22    6   23 1
    23    8   24 1
    24    9   25 1
@<TRIPOS>SUBSTRUCTURE
     1 <0>         1 GROUP 0 A     ****
