@<TRIPOS>MOLECULE
AlkEthOH_c447
   28    27     1     0     0
SMALL
USER_CHARGES

@<TRIPOS>ATOM
      1 C1          1.4571   -1.9451    1.3999 CT        1 <0>       -0.09368
      2 C2          1.3928   -2.9463   -0.8930 CT        1 <0>       -0.09368
      3 C3         -0.6770    2.7756    1.1958 CT        1 <0>       -0.10777
      4 C4         -3.1266    2.6493    0.6172 CT        1 <0>       -0.10777
      5 C5         -0.1336   -0.9922   -0.2953 CT        1 <0>       -0.10974
      6 C6          0.5632   -2.2736    0.2012 CT        1 <0>       -0.06988
      7 C7         -1.8971    1.8762    1.0691 CT        1 <0>        0.14127
      8 C8         -1.0283   -0.3020    0.7400 CT        1 <0>        0.33338
      9 O1         -2.0072   -1.2552    1.1505 OH        1 <0>       -0.61956
     10 O2         -1.6223    0.8446    0.1315 OS        1 <0>       -0.40856
     11 H1          2.2402   -1.2331    1.1181 HC        1 <0>        0.03676
     12 H2          0.8784   -1.5053    2.2192 HC        1 <0>        0.03676
     13 H3          1.9489   -2.8477    1.7777 HC        1 <0>        0.03676
     14 H4          2.1688   -2.2680   -1.2643 HC        1 <0>        0.03676
     15 H5          0.7666   -3.2401   -1.7422 HC        1 <0>        0.03676
     16 H6          1.8990   -3.8400   -0.5158 HC        1 <0>        0.03676
     17 H7         -0.4474    3.2695    0.2467 HC        1 <0>        0.04281
     18 H8         -0.8472    3.5435    1.9580 HC        1 <0>        0.04281
     19 H9          0.2021    2.2051    1.5156 HC        1 <0>        0.04281
     20 H10        -2.9555    3.1403   -0.3456 HC        1 <0>        0.04281
     21 H11        -3.3903    3.4125    1.3573 HC        1 <0>        0.04281
     22 H12        -3.9954    1.9884    0.5239 HC        1 <0>        0.04281
     23 H13        -0.7259   -1.2074   -1.1945 HC        1 <0>        0.06585
     24 H14         0.6392   -0.2786   -0.6133 HC        1 <0>        0.06585
     25 H15        -0.1979   -2.9867    0.5414 HC        1 <0>        0.04036
     26 H16        -2.1000    1.3978    2.0329 H1        1 <0>        0.04843
     27 H17        -0.4343   -0.0126    1.6145 H2        1 <0>        0.03057
     28 H18        -1.5304   -2.0104    1.5345 HO        1 <0>        0.40751
@<TRIPOS>BOND
     1    1    6 1
     2    2    6 1
     3    3    7 1
     4    4    7 1
     5    5    6 1
     6    5    8 1
     7    7   10 1
     8    8    9 1
     9    8   10 1
    10    1   11 1
    11    1   12 1
    12    1   13 1
    13    2   14 1
    14    2   15 1
    15    2   16 1
    16    3   17 1
    17    3   18 1
    18    3   19 1
    19    4   20 1
    20    4   21 1
    21    4   22 1
    22    5   23 1
    23    5   24 1
    24    6   25 1
    25    7   26 1
    26    8   27 1
    27    9   28 1
@<TRIPOS>SUBSTRUCTURE
     1 <0>         1 GROUP 0 A     ****
