@<TRIPOS>MOLECULE
AlkEthOH_c658
   30    29     1     0     0
SMALL
USER_CHARGES

@<TRIPOS>ATOM
      1 C1          0.5845    1.6010    0.8863 CT        1 <0>       -0.08884
      2 C2          0.3983   -2.6620    2.3802 CT        1 <0>       -0.13209
      3 C3         -0.5486   -0.4319   -2.3028 CT        1 <0>       -0.08732
      4 C4          0.0236    1.9926   -2.1042 CT        1 <0>       -0.08732
      5 C5         -1.9424    1.0509   -0.8817 CT        1 <0>       -0.08732
      6 C6         -0.0613   -0.8453    0.6902 CT        1 <0>       -0.07021
      7 C7          0.4177    0.4170   -0.0823 CT        1 <0>       -0.05099
      8 C8          0.9185   -1.3754    1.7489 CT        1 <0>        0.13852
      9 C9         -0.4905    0.7661   -1.3270 CT        1 <0>       -0.05033
     10 O1          2.1761   -1.6403    1.1357 OH        1 <0>       -0.59978
     11 H1         -0.3758    1.8861    1.3274 HC        1 <0>        0.03253
     12 H2          0.9923    2.4808    0.3790 HC        1 <0>        0.03253
     13 H3          1.2365    1.3568    1.7284 HC        1 <0>        0.03253
     14 H4          0.2353   -3.4260    1.6122 HC        1 <0>        0.04163
     15 H5         -0.5686   -2.4974    2.8682 HC        1 <0>        0.04163
     16 H6          1.1034   -3.0562    3.1183 HC        1 <0>        0.04163
     17 H7         -0.9076   -1.3436   -1.8156 HC        1 <0>        0.03354
     18 H8          0.4452   -0.6638   -2.7043 HC        1 <0>        0.03354
     19 H9         -1.2054   -0.2167   -3.1529 HC        1 <0>        0.03354
     20 H10         0.0823    2.8717   -1.4512 HC        1 <0>        0.03354
     21 H11         1.0263    1.8261   -2.5097 HC        1 <0>        0.03354
     22 H12        -0.6393    2.2535   -2.9354 HC        1 <0>        0.03354
     23 H13        -1.9843    1.8945   -0.1825 HC        1 <0>        0.03354
     24 H14        -2.5760    1.3012   -1.7398 HC        1 <0>        0.03354
     25 H15        -2.3879    0.1957   -0.3635 HC        1 <0>        0.03354
     26 H16        -1.0241   -0.6444    1.1737 HC        1 <0>        0.04883
     27 H17        -0.2227   -1.6534   -0.0318 HC        1 <0>        0.04883
     28 H18         1.4181    0.1938   -0.4793 HC        1 <0>        0.06696
     29 H19         1.0711   -0.6335    2.5389 H1        1 <0>        0.02991
     30 H20         2.7680   -1.9497    1.8392 HO        1 <0>        0.39681
@<TRIPOS>BOND
     1    1    7 1
     2    2    8 1
     3    3    9 1
     4    4    9 1
     5    5    9 1
     6    6    7 1
     7    6    8 1
     8    7    9 1
     9    8   10 1
    10    1   11 1
    11    1   12 1
    12    1   13 1
    13    2   14 1
    14    2   15 1
    15    2   16 1
    16    3   17 1
    17    3   18 1
    18    3   19 1
    19    4   20 1
    20    4   21 1
    21    4   22 1
    22    5   23 1
    23    5   24 1
    24    5   25 1
    25    6   26 1
    26    6   27 1
    27    7   28 1
    28    8   29 1
    29   10   30 1
@<TRIPOS>SUBSTRUCTURE
     1 <0>         1 GROUP 0 A     ****
