@<TRIPOS>MOLECULE
AlkEthOH_c547
   31    30     1     0     0
SMALL
USER_CHARGES

@<TRIPOS>ATOM
      1 C1         -0.9652   -3.9769    0.7863 CT        1 <0>       -0.10415
      2 C2          1.4487   -4.5963    0.4109 CT        1 <0>       -0.10415
      3 C3          0.8424   -0.4231    0.5585 CT        1 <0>       -0.12073
      4 C4          2.8552   -1.5690   -3.8891 CT        1 <0>       -0.12471
      5 C5          4.1967   -2.3907   -1.9434 CT        1 <0>       -0.12471
      6 C6          2.0673   -1.0299   -1.5592 CT        1 <0>       -0.07026
      7 C7          0.4600   -3.4644    0.6454 CT        1 <0>        0.14465
      8 C8          1.5075   -1.5489   -0.2243 CT        1 <0>        0.15018
      9 C9          2.7866   -2.0750   -2.4437 CT        1 <0>        0.15146
     10 O1          2.0508   -3.2991   -2.4490 OH        1 <0>       -0.57733
     11 O2          0.5241   -2.5543   -0.4432 OS        1 <0>       -0.40874
     12 H1         -1.2773   -4.5321   -0.1035 HC        1 <0>        0.04160
     13 H2         -1.0490   -4.6356    1.6573 HC        1 <0>        0.04160
     14 H3         -1.6671   -3.1513    0.9482 HC        1 <0>        0.04160
     15 H4          1.1941   -5.1664   -0.4877 HC        1 <0>        0.04160
     16 H5          1.4571   -5.2787    1.2676 HC        1 <0>        0.04160
     17 H6          2.4693   -4.2124    0.3048 HC        1 <0>        0.04160
     18 H7          0.0364    0.0411   -0.0180 HC        1 <0>        0.03967
     19 H8          0.4314   -0.7916    1.5050 HC        1 <0>        0.03967
     20 H9          1.5765    0.3486    0.8146 HC        1 <0>        0.03967
     21 H10         1.8608   -1.3324   -4.2813 HC        1 <0>        0.04139
     22 H11         3.3168   -2.3169   -4.5439 HC        1 <0>        0.04139
     23 H12         3.4799   -0.6710   -3.9597 HC        1 <0>        0.04139
     24 H13         4.1686   -2.7547   -0.9095 HC        1 <0>        0.04139
     25 H14         4.6830   -3.1515   -2.5621 HC        1 <0>        0.04139
     26 H15         4.8262   -1.4947   -1.9253 HC        1 <0>        0.04139
     27 H16         1.2257   -0.6228   -2.1368 HC        1 <0>        0.05725
     28 H17         2.7555   -0.1993   -1.3559 HC        1 <0>        0.05725
     29 H18         0.7416   -2.9147    1.5495 H1        1 <0>        0.02658
     30 H19         2.3023   -1.9768    0.3949 H1        1 <0>        0.04035
     31 H20         2.5394   -3.9091   -3.0216 HO        1 <0>        0.39011
@<TRIPOS>BOND
     1    1    7 1
     2    2    7 1
     3    3    8 1
     4    4    9 1
     5    5    9 1
     6    6    8 1
     7    6    9 1
     8    7   11 1
     9    8   11 1
    10    9   10 1
    11    1   12 1
    12    1   13 1
    13    1   14 1
    14    2   15 1
    15    2   16 1
    16    2   17 1
    17    3   18 1
    18    3   19 1
    19    3   20 1
    20    4   21 1
    21    4   22 1
    22    4   23 1
    23    5   24 1
    24    5   25 1
    25    5   26 1
    26    6   27 1
    27    6   28 1
    28    7   29 1
    29    8   30 1
    30   10   31 1
@<TRIPOS>SUBSTRUCTURE
     1 <0>         1 GROUP 0 A     ****
