@<TRIPOS>MOLECULE
AlkEthOH_r774
   16    16     1     0     0
SMALL
USER_CHARGES

@<TRIPOS>ATOM
      1 C1         -0.4968    0.4979    0.8040 CT        1 <0>       -0.10642
      2 C2          0.3834   -0.4763   -0.8780 CT        1 <0>       -0.10642
      3 C3         -0.5645   -0.9468    0.2518 CT        1 <0>       -0.08071
      4 C4         -0.1286    0.9613   -0.6248 CT        1 <0>        0.11902
      5 C5         -0.0464   -2.0438    1.1583 CT        1 <0>       -0.08425
      6 O1          0.8529    2.0076   -0.7113 OH        1 <0>       -0.58334
      7 H1         -1.4391    0.8903    1.1963 HC        1 <0>        0.05872
      8 H2          0.2935    0.6714    1.5438 HC        1 <0>        0.05872
      9 H3          1.4513   -0.6096   -0.6686 HC        1 <0>        0.05872
     10 H4          0.1647   -0.8848   -1.8685 HC        1 <0>        0.05872
     11 H5         -1.5657   -1.1940   -0.1290 HC        1 <0>        0.05755
     12 H6         -1.0115    1.2103   -1.2273 H1        1 <0>        0.04010
     13 H7          0.9490   -1.7914    1.5330 HC        1 <0>        0.03641
     14 H8          0.0178   -2.9900    0.6145 HC        1 <0>        0.03641
     15 H9         -0.7142   -2.1800    2.0131 HC        1 <0>        0.03641
     16 H10         0.9714    2.1813   -1.6545 HO        1 <0>        0.40036
@<TRIPOS>BOND
     1    1    3 1
     2    1    4 1
     3    2    3 1
     4    2    4 1
     5    3    5 1
     6    4    6 1
     7    1    7 1
     8    1    8 1
     9    2    9 1
    10    2   10 1
    11    3   11 1
    12    4   12 1
    13    5   13 1
    14    5   14 1
    15    5   15 1
    16    6   16 1
@<TRIPOS>SUBSTRUCTURE
     1 <0>         1 GROUP 0 A     ****
