@<TRIPOS>MOLECULE
AlkEthOH_r698
   26    26     1     0     0
SMALL
USER_CHARGES

@<TRIPOS>ATOM
      1 C1          0.6100   -0.0051    2.2521 CT        1 <0>       -0.05784
      2 C2          0.5571   -1.3014    1.4388 CT        1 <0>       -0.10857
      3 C3          0.2453    1.2943    1.5283 CT        1 <0>       -0.10857
      4 C4          1.3254   -1.2779    0.1182 CT        1 <0>        0.14718
      5 C5         -1.0849    1.2740    0.7767 CT        1 <0>        0.14718
      6 C6         -0.3169    0.0031   -1.1723 CT        1 <0>        0.34432
      7 C7         -0.7904   -1.2107   -1.9825 CT        1 <0>       -0.10880
      8 C8         -0.3138    1.2229   -2.1029 CT        1 <0>       -0.10880
      9 O1          1.0367   -0.1806   -0.7402 OS        1 <0>       -0.44727
     10 O2         -1.2685    0.1815   -0.1162 OS        1 <0>       -0.44727
     11 H1         -0.0547   -0.1214    3.1175 HC        1 <0>        0.03302
     12 H2          1.6217    0.1090    2.6616 HC        1 <0>        0.03302
     13 H3          0.9606   -2.1137    2.0568 HC        1 <0>        0.05148
     14 H4         -0.4881   -1.5754    1.2600 HC        1 <0>        0.05148
     15 H5          0.2095    2.1036    2.2687 HC        1 <0>        0.05148
     16 H6          1.0571    1.5706    0.8472 HC        1 <0>        0.05148
     17 H7          2.3967   -1.2166    0.3413 H1        1 <0>        0.04163
     18 H8          1.1831   -2.2193   -0.4230 H1        1 <0>        0.04163
     19 H9         -1.8968    1.2081    1.5100 H1        1 <0>        0.04163
     20 H10        -1.2361    2.2182    0.2428 H1        1 <0>        0.04163
     21 H11        -0.8016   -2.0900   -1.3445 HC        1 <0>        0.05166
     22 H12        -0.1132   -1.3765   -2.8156 HC        1 <0>        0.05166
     23 H13        -1.7918   -1.0252   -2.3610 HC        1 <0>        0.05166
     24 H14         0.0187    2.0980   -1.5516 HC        1 <0>        0.05166
     25 H15        -1.3182    1.3928   -2.4804 HC        1 <0>        0.05166
     26 H16         0.3603    1.0415   -2.9353 HC        1 <0>        0.05166
@<TRIPOS>BOND
     1    1    2 1
     2    1    3 1
     3    2    4 1
     4    3    5 1
     5    4    9 1
     6    5   10 1
     7    6    7 1
     8    6    8 1
     9    6    9 1
    10    6   10 1
    11    1   11 1
    12    1   12 1
    13    2   13 1
    14    2   14 1
    15    3   15 1
    16    3   16 1
    17    4   17 1
    18    4   18 1
    19    5   19 1
    20    5   20 1
    21    7   21 1
    22    7   22 1
    23    7   23 1
    24    8   24 1
    25    8   25 1
    26    8   26 1
@<TRIPOS>SUBSTRUCTURE
     1 <0>         1 GROUP 0 A     ****
