@<TRIPOS>MOLECULE
AlkEthOH_r282
   30    30     1     0     0
SMALL
USER_CHARGES

@<TRIPOS>ATOM
      1 C1         -0.2362    0.1027    1.2678 CT        1 <0>       -0.08118
      2 C2         -0.7975    0.5431   -2.3226 CT        1 <0>        0.11358
      3 C3         -1.5603   -0.3355   -1.3483 CT        1 <0>        0.10871
      4 C4          0.3606    1.7817   -0.6197 CT        1 <0>        0.13157
      5 C5          0.8502    1.0483    0.6602 CT        1 <0>       -0.06098
      6 C6         -0.5206   -1.2790    0.6224 CT        1 <0>        0.35887
      7 C7          1.1234    2.1447    1.7211 CT        1 <0>       -0.08522
      8 C8          2.1725    0.3115    0.3922 CT        1 <0>       -0.08522
      9 C9         -1.7862   -1.8967    1.2353 CT        1 <0>       -0.14705
     10 O1          0.4500    0.9737   -1.7869 OS        1 <0>       -0.39889
     11 O2         -0.6328   -1.2605   -0.7969 OS        1 <0>       -0.44745
     12 O3          0.5771   -2.1341    0.9753 OH        1 <0>       -0.59074
     13 H1          0.0329   -0.0759    2.3144 HC        1 <0>        0.05166
     14 H2         -1.1829    0.6511    1.3321 HC        1 <0>        0.05166
     15 H3         -0.5690   -0.0397   -3.2231 H1        1 <0>        0.05214
     16 H4         -1.3885    1.4141   -2.6368 H1        1 <0>        0.05214
     17 H5         -1.9242    0.2778   -0.5274 H1        1 <0>        0.04387
     18 H6         -2.4065   -0.8214   -1.8236 H1        1 <0>        0.04387
     19 H7         -0.6548    2.1908   -0.4741 H1        1 <0>        0.03996
     20 H8          0.9980    2.6646   -0.7968 H1        1 <0>        0.03996
     21 H9          1.8753    2.8289    1.3425 HC        1 <0>        0.04009
     22 H10         1.4795    1.6783    2.6335 HC        1 <0>        0.04009
     23 H11         0.2043    2.6854    1.9210 HC        1 <0>        0.04009
     24 H12         2.8813    1.0131   -0.0253 HC        1 <0>        0.04009
     25 H13         1.9854   -0.4921   -0.3065 HC        1 <0>        0.04009
     26 H14         2.5439   -0.0842    1.3274 HC        1 <0>        0.04009
     27 H15        -1.9794   -2.8647    0.7783 HC        1 <0>        0.04849
     28 H16        -2.6358   -1.2406    1.0593 HC        1 <0>        0.04849
     29 H17        -1.6484   -2.0263    2.3065 HC        1 <0>        0.04849
     30 H18         0.3859   -2.9884    0.5672 HO        1 <0>        0.42273
@<TRIPOS>BOND
     1    1    5 1
     2    1    6 1
     3    2    3 1
     4    2   10 1
     5    3   11 1
     6    4    5 1
     7    4   10 1
     8    5    7 1
     9    5    8 1
    10    6    9 1
    11    6   11 1
    12    6   12 1
    13    1   13 1
    14    1   14 1
    15    2   15 1
    16    2   16 1
    17    3   17 1
    18    3   18 1
    19    4   19 1
    20    4   20 1
    21    7   21 1
    22    7   22 1
    23    7   23 1
    24    8   24 1
    25    8   25 1
    26    8   26 1
    27    9   27 1
    28    9   28 1
    29    9   29 1
    30   12   30 1
@<TRIPOS>SUBSTRUCTURE
     1 <0>         1 GROUP 0 A     ****
