@<TRIPOS>MOLECULE
AlkEthOH_r98
   23    23     1     0     0
SMALL
USER_CHARGES

@<TRIPOS>ATOM
      1 C1         -0.8650    1.1699   -1.3927 CT        1 <0>       -0.06968
      2 C2         -1.4080   -0.2343   -1.0970 CT        1 <0>       -0.10154
      3 C3          0.6604    1.2729   -1.5340 CT        1 <0>       -0.10154
      4 C4         -1.9197   -0.4006    0.3377 CT        1 <0>        0.13187
      5 C5          1.4248    1.0026   -0.2430 CT        1 <0>        0.13187
      6 C6         -0.0142   -1.3337    1.4319 CT        1 <0>        0.10695
      7 C7          1.4186   -0.8520    1.2606 CT        1 <0>        0.10695
      8 O1         -0.9012   -0.2225    1.3162 OS        1 <0>       -0.42592
      9 O2          1.6043   -0.4022   -0.0797 OS        1 <0>       -0.42592
     10 H1         -1.2922    1.4954   -2.3505 HC        1 <0>        0.03930
     11 H2         -1.2182    1.8914   -0.6463 HC        1 <0>        0.03930
     12 H3         -2.2585   -0.4192   -1.7655 HC        1 <0>        0.05097
     13 H4         -0.6575   -0.9943   -1.3368 HC        1 <0>        0.05097
     14 H5          0.9990    0.5945   -2.3262 HC        1 <0>        0.05097
     15 H6          0.8885    2.2951   -1.8596 HC        1 <0>        0.05097
     16 H7         -2.6916    0.3514    0.5359 H1        1 <0>        0.04295
     17 H8         -2.3954   -1.3802    0.4682 H1        1 <0>        0.04295
     18 H9          2.4261    1.4408   -0.3162 H1        1 <0>        0.04295
     19 H10         0.9206    1.4726    0.6090 H1        1 <0>        0.04295
     20 H11        -0.2424   -2.1142    0.6968 H1        1 <0>        0.04817
     21 H12        -0.1447   -1.7583    2.4323 H1        1 <0>        0.04817
     22 H13         1.6798   -0.0678    1.9807 H1        1 <0>        0.04817
     23 H14         2.1002   -1.6938    1.4177 H1        1 <0>        0.04817
@<TRIPOS>BOND
     1    1    2 1
     2    1    3 1
     3    2    4 1
     4    3    5 1
     5    4    8 1
     6    5    9 1
     7    6    7 1
     8    6    8 1
     9    7    9 1
    10    1   10 1
    11    1   11 1
    12    2   12 1
    13    2   13 1
    14    3   14 1
    15    3   15 1
    16    4   16 1
    17    4   17 1
    18    5   18 1
    19    5   19 1
    20    6   20 1
    21    6   21 1
    22    7   22 1
    23    7   23 1
@<TRIPOS>SUBSTRUCTURE
     1 <0>         1 GROUP 0 A     ****
