@<TRIPOS>MOLECULE
AlkEthOH_c271
   23    22     1     0     0
SMALL
USER_CHARGES

@<TRIPOS>ATOM
      1 C1          0.9936    0.2540    0.3847 CT        1 <0>       -0.09056
      2 C2         -0.1462    1.2871    2.3422 CT        1 <0>       -0.09056
      3 C3          3.4142   -0.4039    2.1285 CT        1 <0>       -0.08661
      4 C4          2.2758    0.5935    4.1015 CT        1 <0>       -0.08661
      5 C5          2.8956    2.0399    2.1611 CT        1 <0>       -0.08661
      6 C6          0.9731    0.3238    1.9191 CT        1 <0>       -0.05570
      7 C7          2.3698    0.6484    2.5609 CT        1 <0>       -0.04854
      8 H1          1.2814    1.2098   -0.0616 HC        1 <0>        0.03341
      9 H2          1.7284   -0.4852    0.0456 HC        1 <0>        0.03341
     10 H3          0.0219   -0.0413   -0.0223 HC        1 <0>        0.03341
     11 H4          0.0624    2.3152    2.0311 HC        1 <0>        0.03341
     12 H5         -0.3037    1.2768    3.4242 HC        1 <0>        0.03341
     13 H6         -1.0971    0.9930    1.8833 HC        1 <0>        0.03341
     14 H7          3.5422   -0.4298    1.0416 HC        1 <0>        0.03360
     15 H8          3.1255   -1.4068    2.4620 HC        1 <0>        0.03360
     16 H9          4.3990   -0.1839    2.5573 HC        1 <0>        0.03360
     17 H10         1.5510    1.3146    4.4926 HC        1 <0>        0.03360
     18 H11         3.2402    0.8316    4.5656 HC        1 <0>        0.03360
     19 H12         1.9823   -0.4051    4.4438 HC        1 <0>        0.03360
     20 H13         2.1967    2.8342    2.4418 HC        1 <0>        0.03360
     21 H14         3.0765    2.1120    1.0841 HC        1 <0>        0.03360
     22 H15         3.8467    2.2565    2.6622 HC        1 <0>        0.03360
     23 H16         0.6757   -0.6738    2.2726 HC        1 <0>        0.04233
@<TRIPOS>BOND
     1    1    6 1
     2    2    6 1
     3    3    7 1
     4    4    7 1
     5    5    7 1
     6    6    7 1
     7    1    8 1
     8    1    9 1
     9    1   10 1
    10    2   11 1
    11    2   12 1
    12    2   13 1
    13    3   14 1
    14    3   15 1
    15    3   16 1
    16    4   17 1
    17    4   18 1
    18    4   19 1
    19    5   20 1
    20    5   21 1
    21    5   22 1
    22    6   23 1
@<TRIPOS>SUBSTRUCTURE
     1 <0>         1 GROUP 0 A     ****
