@<TRIPOS>MOLECULE
AlkEthOH_c606
   31    30     1     0     0
SMALL
USER_CHARGES

@<TRIPOS>ATOM
      1 C1         -0.3020   -2.8830    1.7093 CT        1 <0>       -0.13086
      2 C2         -0.8810    0.3400   -2.0455 CT        1 <0>       -0.08870
      3 C3          1.4962    0.0678   -1.3805 CT        1 <0>       -0.08870
      4 C4          0.2829    2.7322   -0.4582 CT        1 <0>       -0.12554
      5 C5         -1.4820    1.5023    0.8014 CT        1 <0>       -0.12554
      6 C6         -0.3465   -1.2225   -0.1828 CT        1 <0>       -0.05957
      7 C7          0.4608   -1.7614    1.0085 CT        1 <0>        0.13586
      8 C8          0.0550    0.1581   -0.8197 CT        1 <0>       -0.02526
      9 C9         -0.0804    1.3784    0.1800 CT        1 <0>        0.16246
     10 O1          1.7062   -2.2837    0.5648 OH        1 <0>       -0.60178
     11 O2          0.8465    1.1926    1.2602 OH        1 <0>       -0.59983
     12 H1         -0.5177   -3.6960    1.0077 HC        1 <0>        0.03814
     13 H2          0.2712   -3.2917    2.5470 HC        1 <0>        0.03814
     14 H3         -1.2681   -2.5265    2.0834 HC        1 <0>        0.03814
     15 H4         -1.9315    0.4145   -1.7480 HC        1 <0>        0.03929
     16 H5         -0.6288    1.2324   -2.6269 HC        1 <0>        0.03929
     17 H6         -0.7986   -0.5131   -2.7300 HC        1 <0>        0.03929
     18 H7          2.2315   -0.0626   -0.5792 HC        1 <0>        0.03929
     19 H8          1.6242   -0.7694   -2.0721 HC        1 <0>        0.03929
     20 H9          1.7703    0.9857   -1.9133 HC        1 <0>        0.03929
     21 H10         1.2749    2.7077   -0.9198 HC        1 <0>        0.04190
     22 H11         0.3343    3.5180    0.3058 HC        1 <0>        0.04190
     23 H12        -0.4494    3.0497   -1.2059 HC        1 <0>        0.04190
     24 H13        -1.8008    0.5683    1.2740 HC        1 <0>        0.04190
     25 H14        -2.2350    1.8016    0.0673 HC        1 <0>        0.04190
     26 H15        -1.4839    2.2496    1.6044 HC        1 <0>        0.04190
     27 H16        -1.4028   -1.1743    0.1135 HC        1 <0>        0.04610
     28 H17        -0.3003   -1.9785   -0.9805 HC        1 <0>        0.04610
     29 H18         0.6561   -0.9727    1.7391 H1        1 <0>        0.06408
     30 H19         2.1775   -2.5932    1.3551 HO        1 <0>        0.39449
     31 H20         0.7088    1.9383    1.8601 HO        1 <0>        0.39513
@<TRIPOS>BOND
     1    1    7 1
     2    2    8 1
     3    3    8 1
     4    4    9 1
     5    5    9 1
     6    6    7 1
     7    6    8 1
     8    7   10 1
     9    8    9 1
    10    9   11 1
    11    1   12 1
    12    1   13 1
    13    1   14 1
    14    2   15 1
    15    2   16 1
    16    2   17 1
    17    3   18 1
    18    3   19 1
    19    3   20 1
    20    4   21 1
    21    4   22 1
    22    4   23 1
    23    5   24 1
    24    5   25 1
    25    5   26 1
    26    6   27 1
    27    6   28 1
    28    7   29 1
    29   10   30 1
    30   11   31 1
@<TRIPOS>SUBSTRUCTURE
     1 <0>         1 GROUP 0 A     ****
