@<TRIPOS>MOLECULE
AlkEthOH_c1216
   26    25     1     0     0
SMALL
USER_CHARGES

@<TRIPOS>ATOM
      1 C1         -3.2950   -1.0718   -1.5833 CT        1 <0>       -0.09755
      2 C2         -0.3606    1.7288    2.6165 CT        1 <0>       -0.10792
      3 C3          1.4804    0.0220    2.8388 CT        1 <0>       -0.10792
      4 C4          1.3325   -0.8319   -0.6670 CT        1 <0>       -0.11746
      5 C5         -2.2893   -0.2455   -0.8104 CT        1 <0>        0.14094
      6 C6          0.5852    0.7923    1.8802 CT        1 <0>        0.15681
      7 C7          0.0470   -0.0730   -0.3097 CT        1 <0>        0.53068
      8 O1          0.1415    1.2686   -0.8003 OH        1 <0>       -0.64706
      9 O2         -0.9914   -0.7917   -1.0081 OS        1 <0>       -0.44994
     10 O3         -0.1742   -0.1271    1.1086 OS        1 <0>       -0.43647
     11 H1         -3.0703   -1.0590   -2.6535 HC        1 <0>        0.04311
     12 H2         -3.2921   -2.1094   -1.2338 HC        1 <0>        0.04311
     13 H3         -4.3089   -0.6873   -1.4306 HC        1 <0>        0.04311
     14 H4         -0.9948    1.1805    3.3197 HC        1 <0>        0.04326
     15 H5          0.2065    2.4836    3.1718 HC        1 <0>        0.04326
     16 H6         -1.0033    2.2720    1.9150 HC        1 <0>        0.04326
     17 H7          0.8901   -0.5669    3.5474 HC        1 <0>        0.04326
     18 H8          2.1177    0.7118    3.4026 HC        1 <0>        0.04326
     19 H9          2.1511   -0.6528    2.2956 HC        1 <0>        0.04326
     20 H10         1.3105   -1.8672   -0.3124 HC        1 <0>        0.06006
     21 H11         2.2055   -0.3532   -0.2081 HC        1 <0>        0.06006
     22 H12         1.4886   -0.8462   -1.7512 HC        1 <0>        0.06006
     23 H13        -2.5196   -0.2625    0.2591 H1        1 <0>        0.04316
     24 H14        -2.2928    0.7908   -1.1614 H1        1 <0>        0.04316
     25 H15         1.2044    1.3699    1.1861 H1        1 <0>        0.05754
     26 H16         0.2538    1.2481   -1.7650 HO        1 <0>        0.42296
@<TRIPOS>BOND
     1    1    5 1
     2    2    6 1
     3    3    6 1
     4    4    7 1
     5    5    9 1
     6    6   10 1
     7    7    8 1
     8    7    9 1
     9    7   10 1
    10    1   11 1
    11    1   12 1
    12    1   13 1
    13    2   14 1
    14    2   15 1
    15    2   16 1
    16    3   17 1
    17    3   18 1
    18    3   19 1
    19    4   20 1
    20    4   21 1
    21    4   22 1
    22    5   23 1
    23    5   24 1
    24    6   25 1
    25    8   26 1
@<TRIPOS>SUBSTRUCTURE
     1 <0>         1 GROUP 0 A     ****
