@<TRIPOS>MOLECULE
AlkEthOH_c212
   31    30     1     0     0
SMALL
USER_CHARGES

@<TRIPOS>ATOM
      1 C1          0.5211    0.7739   -1.7186 CT        1 <0>       -0.09139
      2 C2          1.5192    1.8707    0.2730 CT        1 <0>       -0.09139
      3 C3          0.7290   -2.8746    1.3608 CT        1 <0>       -0.12504
      4 C4         -0.6063   -2.3015   -0.6623 CT        1 <0>       -0.12504
      5 C5         -0.9280    1.2033    0.3284 CT        1 <0>       -0.07382
      6 C6          0.9600   -0.5542    0.4294 CT        1 <0>       -0.05760
      7 C7         -1.4280    2.5883   -0.0828 CT        1 <0>        0.13139
      8 C8          0.4825    0.8103   -0.1778 CT        1 <0>       -0.03717
      9 C9         -0.0139   -1.7444    0.6288 CT        1 <0>        0.15408
     10 O1         -2.7324    2.7990    0.4488 OH        1 <0>       -0.60041
     11 O2         -1.1025   -1.3550    1.4683 OH        1 <0>       -0.59442
     12 H1         -0.1896    0.0424   -2.1197 HC        1 <0>        0.03396
     13 H2          0.2524    1.7466   -2.1454 HC        1 <0>        0.03396
     14 H3          1.5042    0.4957   -2.1036 HC        1 <0>        0.03396
     15 H4          1.5493    1.9542    1.3653 HC        1 <0>        0.03396
     16 H5          1.2957    2.8632   -0.1320 HC        1 <0>        0.03396
     17 H6          2.5264    1.6055   -0.0693 HC        1 <0>        0.03396
     18 H7          1.1740   -2.5238    2.2979 HC        1 <0>        0.04227
     19 H8          0.0517   -3.7057    1.5888 HC        1 <0>        0.04227
     20 H9          1.5245   -3.2920    0.7326 HC        1 <0>        0.04227
     21 H10        -1.1448   -1.5190   -1.2107 HC        1 <0>        0.04227
     22 H11        -1.3070   -3.1193   -0.4675 HC        1 <0>        0.04227
     23 H12         0.1731   -2.6435   -1.3486 HC        1 <0>        0.04227
     24 H13        -1.6664    0.4729   -0.0226 HC        1 <0>        0.06869
     25 H14        -0.9556    1.1435    1.4247 HC        1 <0>        0.06869
     26 H15         1.8112   -0.9074   -0.1703 HC        1 <0>        0.04609
     27 H16         1.3740   -0.3256    1.4232 HC        1 <0>        0.04609
     28 H17        -1.4852    2.6970   -1.1693 H1        1 <0>        0.01668
     29 H18        -0.7870    3.3798    0.3136 H1        1 <0>        0.01668
     30 H19        -3.0078    3.6846    0.1645 HO        1 <0>        0.39379
     31 H20        -1.6546   -2.1429    1.5818 HO        1 <0>        0.39672
@<TRIPOS>BOND
     1    1    8 1
     2    2    8 1
     3    3    9 1
     4    4    9 1
     5    5    7 1
     6    5    8 1
     7    6    8 1
     8    6    9 1
     9    7   10 1
    10    9   11 1
    11    1   12 1
    12    1   13 1
    13    1   14 1
    14    2   15 1
    15    2   16 1
    16    2   17 1
    17    3   18 1
    18    3   19 1
    19    3   20 1
    20    4   21 1
    21    4   22 1
    22    4   23 1
    23    5   24 1
    24    5   25 1
    25    6   26 1
    26    6   27 1
    27    7   28 1
    28    7   29 1
    29   10   30 1
    30   11   31 1
@<TRIPOS>SUBSTRUCTURE
     1 <0>         1 GROUP 0 A     ****
