@<TRIPOS>MOLECULE
AlkEthOH_r448
   27    27     1     0     0
SMALL
USER_CHARGES

@<TRIPOS>ATOM
      1 C1         -0.8284    1.9984   -0.0964 CT        1 <0>       -0.05578
      2 C2         -1.7899    1.0930   -0.8643 CT        1 <0>       -0.11781
      3 C3          0.5367    1.4377    0.3320 CT        1 <0>       -0.11070
      4 C4         -1.2290    0.4873   -2.1463 CT        1 <0>        0.13592
      5 C5         -0.0883   -1.3181   -1.0753 CT        1 <0>        0.10013
      6 C6          0.8852   -1.1162    0.0849 CT        1 <0>        0.13493
      7 C7          0.5794    0.0637    1.0502 CT        1 <0>        0.16722
      8 C8          1.6659    0.1032    2.1441 CT        1 <0>       -0.12391
      9 O1         -0.0082   -0.2141   -1.9649 OS        1 <0>       -0.42032
     10 O2          0.9339   -2.3423    0.8198 OH        1 <0>       -0.58629
     11 O3         -0.6574   -0.1926    1.7163 OH        1 <0>       -0.58392
     12 H1         -0.6450    2.8988   -0.6972 HC        1 <0>        0.03401
     13 H2         -1.3516    2.3481    0.8035 HC        1 <0>        0.03401
     14 H3         -2.1536    0.3023   -0.2019 HC        1 <0>        0.05684
     15 H4         -2.6798    1.6798   -1.1256 HC        1 <0>        0.05684
     16 H5          1.2272    1.4338   -0.5208 HC        1 <0>        0.05274
     17 H6          0.9562    2.2004    1.0038 HC        1 <0>        0.05274
     18 H7         -1.9647   -0.1835   -2.6053 H1        1 <0>        0.04463
     19 H8         -1.0338    1.2870   -2.8691 H1        1 <0>        0.04463
     20 H9          0.2110   -2.2095   -1.6402 H1        1 <0>        0.05139
     21 H10        -1.1050   -1.5272   -0.7235 H1        1 <0>        0.05139
     22 H11         1.8880   -0.9539   -0.3441 H1        1 <0>        0.04309
     23 H12         1.6974   -0.8564    2.6472 HC        1 <0>        0.04760
     24 H13         1.4241    0.8841    2.8557 HC        1 <0>        0.04760
     25 H14         2.6253    0.3089    1.6834 HC        1 <0>        0.04760
     26 H15         1.2442   -3.0181    0.1996 HO        1 <0>        0.39728
     27 H16        -0.7746    0.5227    2.3591 HO        1 <0>        0.39814
@<TRIPOS>BOND
     1    1    2 1
     2    1    3 1
     3    2    4 1
     4    3    7 1
     5    4    9 1
     6    5    6 1
     7    5    9 1
     8    6    7 1
     9    6   10 1
    10    7    8 1
    11    7   11 1
    12    1   12 1
    13    1   13 1
    14    2   14 1
    15    2   15 1
    16    3   16 1
    17    3   17 1
    18    4   18 1
    19    4   19 1
    20    5   20 1
    21    5   21 1
    22    6   22 1
    23    8   23 1
    24    8   24 1
    25    8   25 1
    26   10   26 1
    27   11   27 1
@<TRIPOS>SUBSTRUCTURE
     1 <0>         1 GROUP 0 A     ****
