@<TRIPOS>MOLECULE
AlkEthOH_c705
   25    24     1     0     0
SMALL
USER_CHARGES

@<TRIPOS>ATOM
      1 C1         -0.6731    3.3561   -0.2172 CT        1 <0>       -0.12913
      2 C2         -0.6926   -1.9878   -1.1649 CT        1 <0>       -0.12277
      3 C3          1.0153   -2.7611    0.5012 CT        1 <0>       -0.12277
      4 C4         -0.3899    0.8611    0.0144 CT        1 <0>       -0.06897
      5 C5          0.5939   -0.2964    0.2530 CT        1 <0>       -0.06038
      6 C6          0.3065    2.2258    0.0694 CT        1 <0>        0.13796
      7 C7         -0.0450   -1.6991    0.1911 CT        1 <0>        0.14937
      8 O1          1.3460    2.2601   -0.9042 OH        1 <0>       -0.60546
      9 O2         -1.0536   -1.7791    1.2007 OH        1 <0>       -0.60160
     10 H1         -1.1360    3.2221   -1.2009 HC        1 <0>        0.04232
     11 H2         -1.4880    3.3642    0.5153 HC        1 <0>        0.04232
     12 H3         -0.1739    4.3296   -0.1982 HC        1 <0>        0.04232
     13 H4         -1.4541   -1.2348   -1.3997 HC        1 <0>        0.04205
     14 H5         -1.1692   -2.9731   -1.1820 HC        1 <0>        0.04205
     15 H6          0.0393   -1.9345   -1.9777 HC        1 <0>        0.04205
     16 H7          1.4887   -2.5677    1.4706 HC        1 <0>        0.04205
     17 H8          1.7944   -2.7892   -0.2675 HC        1 <0>        0.04205
     18 H9          0.5637   -3.7572    0.5730 HC        1 <0>        0.04205
     19 H10        -1.1891    0.8311    0.7638 HC        1 <0>        0.05477
     20 H11        -0.8516    0.7376   -0.9722 HC        1 <0>        0.05477
     21 H12         1.0372   -0.1577    1.2483 HC        1 <0>        0.05544
     22 H13         1.4130   -0.2358   -0.4745 HC        1 <0>        0.05544
     23 H14         0.7603    2.3744    1.0557 H1        1 <0>        0.03114
     24 H15         1.7753    3.1257   -0.8203 HO        1 <0>        0.39654
     25 H16        -1.4074   -2.6799    1.1612 HO        1 <0>        0.39639
@<TRIPOS>BOND
     1    1    6 1
     2    2    7 1
     3    3    7 1
     4    4    5 1
     5    4    6 1
     6    5    7 1
     7    6    8 1
     8    7    9 1
     9    1   10 1
    10    1   11 1
    11    1   12 1
    12    2   13 1
    13    2   14 1
    14    2   15 1
    15    3   16 1
    16    3   17 1
    17    3   18 1
    18    4   19 1
    19    4   20 1
    20    5   21 1
    21    5   22 1
    22    6   23 1
    23    8   24 1
    24    9   25 1
@<TRIPOS>SUBSTRUCTURE
     1 <0>         1 GROUP 0 A     ****
