@<TRIPOS>MOLECULE
AlkEthOH_c611
   27    26     1     0     0
SMALL
USER_CHARGES

@<TRIPOS>ATOM
      1 C1         -0.4296    0.5953   -0.3525 CT        1 <0>       -0.08638
      2 C2          2.8534    1.9289   -3.8375 CT        1 <0>       -0.08767
      3 C3          0.6635    1.4111   -4.9403 CT        1 <0>       -0.08767
      4 C4          0.8330    3.2966   -3.3142 CT        1 <0>       -0.08767
      5 C5          0.9288    0.9447   -2.4504 CT        1 <0>       -0.06783
      6 C6         -1.6152    0.8235   -2.5533 CT        1 <0>        0.13342
      7 C7         -0.3996    1.2752   -1.7296 CT        1 <0>       -0.06642
      8 C8          1.3331    1.8724   -3.6327 CT        1 <0>       -0.05474
      9 O1         -2.7675    0.7665   -1.7208 OH        1 <0>       -0.60276
     10 H1         -0.3478   -0.4923   -0.4567 HC        1 <0>        0.03816
     11 H2         -1.3616    0.8169    0.1788 HC        1 <0>        0.03816
     12 H3          0.4055    0.9269    0.2731 HC        1 <0>        0.03816
     13 H4          3.3728    2.2534   -2.9301 HC        1 <0>        0.03425
     14 H5          3.2522    0.9418   -4.0994 HC        1 <0>        0.03425
     15 H6          3.1174    2.6156   -4.6491 HC        1 <0>        0.03425
     16 H7         -0.4258    1.3601   -4.8273 HC        1 <0>        0.03425
     17 H8          0.8693    2.0945   -5.7699 HC        1 <0>        0.03425
     18 H9          1.0124    0.4145   -5.2328 HC        1 <0>        0.03425
     19 H10        -0.2515    3.3123   -3.1583 HC        1 <0>        0.03425
     20 H11         1.3043    3.6881   -2.4055 HC        1 <0>        0.03425
     21 H12         1.0603    3.9881   -4.1335 HC        1 <0>        0.03425
     22 H13         1.7504    0.9719   -1.7210 HC        1 <0>        0.04239
     23 H14         0.8924   -0.0947   -2.8047 HC        1 <0>        0.04239
     24 H15        -1.8294    1.5191   -3.3680 H1        1 <0>        0.02183
     25 H16        -1.4507   -0.1703   -2.9840 H1        1 <0>        0.02183
     26 H17        -0.4852    2.3511   -1.5434 HC        1 <0>        0.05931
     27 H18        -3.5038    0.4782   -2.2834 HO        1 <0>        0.39724
@<TRIPOS>BOND
     1    1    7 1
     2    2    8 1
     3    3    8 1
     4    4    8 1
     5    5    7 1
     6    5    8 1
     7    6    7 1
     8    6    9 1
     9    1   10 1
    10    1   11 1
    11    1   12 1
    12    2   13 1
    13    2   14 1
    14    2   15 1
    15    3   16 1
    16    3   17 1
    17    3   18 1
    18    4   19 1
    19    4   20 1
    20    4   21 1
    21    5   22 1
    22    5   23 1
    23    6   24 1
    24    6   25 1
    25    7   26 1
    26    9   27 1
@<TRIPOS>SUBSTRUCTURE
     1 <0>         1 GROUP 0 A     ****
