@<TRIPOS>MOLECULE
AlkEthOH_c150
   25    24     1     0     0
SMALL
USER_CHARGES

@<TRIPOS>ATOM
      1 C1         -1.0013    0.5601   -1.7686 CT        1 <0>       -0.08848
      2 C2         -1.1318    2.2307    0.0802 CT        1 <0>       -0.08848
      3 C3         -2.0749   -0.0555    0.4108 CT        1 <0>       -0.08848
      4 C4          0.5947    0.3760    1.8548 CT        1 <0>       -0.11823
      5 C5          1.9477   -0.1189    2.3618 CT        1 <0>        0.13242
      6 C6          0.4571    0.2765    0.3270 CT        1 <0>        0.14639
      7 C7         -0.9238    0.7337   -0.2401 CT        1 <0>       -0.08298
      8 O1          1.9722   -0.0087    3.7794 OH        1 <0>       -0.60610
      9 O2          0.6915   -1.0785   -0.0675 OH        1 <0>       -0.59886
     10 H1         -0.8610   -0.4848   -2.0639 HC        1 <0>        0.03779
     11 H2         -1.9801    0.8738   -2.1498 HC        1 <0>        0.03779
     12 H3         -0.2420    1.1604   -2.2811 HC        1 <0>        0.03779
     13 H4         -1.0860    2.4118    1.1599 HC        1 <0>        0.03779
     14 H5         -2.1092    2.5796   -0.2727 HC        1 <0>        0.03779
     15 H6         -0.3711    2.8572   -0.3981 HC        1 <0>        0.03779
     16 H7         -2.0531    0.0439    1.5024 HC        1 <0>        0.03779
     17 H8         -3.0547    0.3016    0.0786 HC        1 <0>        0.03779
     18 H9         -2.0042   -1.1230    0.1743 HC        1 <0>        0.03779
     19 H10        -0.1835   -0.2178    2.3497 HC        1 <0>        0.06149
     20 H11         0.4603    1.4085    2.1939 HC        1 <0>        0.06149
     21 H12         2.1138   -1.1677    2.0993 H1        1 <0>        0.02899
     22 H13         2.7623    0.4872    1.9530 H1        1 <0>        0.02899
     23 H14         1.2404    0.8873   -0.1407 H1        1 <0>        0.07351
     24 H15         2.8411   -0.3295    4.0695 HO        1 <0>        0.39979
     25 H16         0.0207   -1.6117    0.3832 HO        1 <0>        0.39843
@<TRIPOS>BOND
     1    1    7 1
     2    2    7 1
     3    3    7 1
     4    4    5 1
     5    4    6 1
     6    5    8 1
     7    6    7 1
     8    6    9 1
     9    1   10 1
    10    1   11 1
    11    1   12 1
    12    2   13 1
    13    2   14 1
    14    2   15 1
    15    3   16 1
    16    3   17 1
    17    3   18 1
    18    4   19 1
    19    4   20 1
    20    5   21 1
    21    5   22 1
    22    6   23 1
    23    8   24 1
    24    9   25 1
@<TRIPOS>SUBSTRUCTURE
     1 <0>         1 GROUP 0 A     ****
