@<TRIPOS>MOLECULE
AlkEthOH_c179
   28    27     1     0     0
SMALL
USER_CHARGES

@<TRIPOS>ATOM
      1 C1         -1.2456   -2.1363    2.5830 CT        1 <0>       -0.11188
      2 C2         -1.7225   -1.2040    4.8661 CT        1 <0>       -0.11188
      3 C3         -2.6054   -0.0325    2.8274 CT        1 <0>       -0.11188
      4 C4         -0.4921    0.1122    0.9716 CT        1 <0>       -0.09942
      5 C5          1.6723    0.5912    2.1500 CT        1 <0>       -0.09942
      6 C6          0.7921   -1.7855    2.0067 CT        1 <0>        0.10257
      7 C7         -1.4585   -0.8634    3.4011 CT        1 <0>        0.15815
      8 C8          0.4298   -0.2995    2.1208 CT        1 <0>        0.16465
      9 O1          1.8456   -1.9690    1.0676 OH        1 <0>       -0.60018
     10 O2         -0.2710   -0.0901    3.3496 OS        1 <0>       -0.41803
     11 H1         -1.0558   -1.8961    1.5307 HC        1 <0>        0.04246
     12 H2         -0.4035   -2.7239    2.9629 HC        1 <0>        0.04246
     13 H3         -2.1424   -2.7662    2.5993 HC        1 <0>        0.04246
     14 H4         -1.8758   -0.2937    5.4568 HC        1 <0>        0.04246
     15 H5         -0.8615   -1.7178    5.3087 HC        1 <0>        0.04246
     16 H6         -2.6038   -1.8435    4.9798 HC        1 <0>        0.04246
     17 H7         -2.7583    0.8806    3.4141 HC        1 <0>        0.04246
     18 H8         -2.4161    0.2525    1.7875 HC        1 <0>        0.04246
     19 H9         -3.5488   -0.5888    2.8698 HC        1 <0>        0.04246
     20 H10        -1.3862   -0.5210    0.9424 HC        1 <0>        0.04730
     21 H11        -0.8084    1.1564    1.0628 HC        1 <0>        0.04730
     22 H12         0.0077   -0.0148    0.0045 HC        1 <0>        0.04730
     23 H13         2.3454    0.3108    2.9678 HC        1 <0>        0.04730
     24 H14         1.3962    1.6368    2.3298 HC        1 <0>        0.04730
     25 H15         2.2270    0.5381    1.2076 HC        1 <0>        0.04730
     26 H16         1.1389   -2.1760    2.9697 H1        1 <0>        0.03129
     27 H17        -0.0689   -2.3748    1.6736 H1        1 <0>        0.03129
     28 H18         2.0297   -2.9213    1.0386 HO        1 <0>        0.39880
@<TRIPOS>BOND
     1    1    7 1
     2    2    7 1
     3    3    7 1
     4    4    8 1
     5    5    8 1
     6    6    8 1
     7    6    9 1
     8    7   10 1
     9    8   10 1
    10    1   11 1
    11    1   12 1
    12    1   13 1
    13    2   14 1
    14    2   15 1
    15    2   16 1
    16    3   17 1
    17    3   18 1
    18    3   19 1
    19    4   20 1
    20    4   21 1
    21    4   22 1
    22    5   23 1
    23    5   24 1
    24    5   25 1
    25    6   26 1
    26    6   27 1
    27    9   28 1
@<TRIPOS>SUBSTRUCTURE
     1 <0>         1 GROUP 0 A     ****
