@<TRIPOS>MOLECULE
AlkEthOH_r1044
   26    26     1     0     0
SMALL
USER_CHARGES

@<TRIPOS>ATOM
      1 C1          0.2006    0.6477   -1.5440 CT        1 <0>       -0.10965
      2 C2          0.7749   -0.6868   -2.0206 CT        1 <0>        0.12879
      3 C3          0.9462   -1.6452    0.1527 CT        1 <0>        0.31880
      4 C4         -0.8933    0.4716   -0.4688 CT        1 <0>       -0.08602
      5 C5         -0.3247    0.2644    0.9736 CT        1 <0>        0.15700
      6 C6         -1.8971    1.6311   -0.5631 CT        1 <0>       -0.08761
      7 C7         -1.3658   -0.4236    1.8754 CT        1 <0>       -0.10152
      8 C8          0.0778    1.5913    1.6422 CT        1 <0>       -0.10152
      9 O1          1.6077   -1.3265   -1.0649 OS        1 <0>       -0.43018
     10 O2          0.8737   -0.5240    1.0175 OS        1 <0>       -0.43482
     11 H1          1.0040    1.2910   -1.1686 HC        1 <0>        0.05950
     12 H2         -0.2291    1.1459   -2.4220 HC        1 <0>        0.05950
     13 H3         -0.0192   -1.3752   -2.3331 H1        1 <0>        0.04456
     14 H4          1.3979   -0.5042   -2.9030 H1        1 <0>        0.04456
     15 H5         -0.0229   -2.1276   -0.0201 H2        1 <0>        0.05959
     16 H6          1.5782   -2.3821    0.6577 H2        1 <0>        0.05959
     17 H7         -1.4628   -0.4294   -0.7372 HC        1 <0>        0.04338
     18 H8         -1.3978    2.5609   -0.3085 HC        1 <0>        0.03723
     19 H9         -2.7151    1.4560    0.1290 HC        1 <0>        0.03723
     20 H10        -2.2836    1.6910   -1.5759 HC        1 <0>        0.03723
     21 H11        -0.9472   -0.5551    2.8674 HC        1 <0>        0.04406
     22 H12        -1.6196   -1.3902    1.4539 HC        1 <0>        0.04406
     23 H13        -2.2541    0.1963    1.9318 HC        1 <0>        0.04406
     24 H14         0.4634    1.3880    2.6355 HC        1 <0>        0.04406
     25 H15        -0.7931    2.2343    1.7122 HC        1 <0>        0.04406
     26 H16         0.8429    2.0747    1.0442 HC        1 <0>        0.04406
@<TRIPOS>BOND
     1    1    2 1
     2    1    4 1
     3    2    9 1
     4    3    9 1
     5    3   10 1
     6    4    5 1
     7    4    6 1
     8    5    7 1
     9    5    8 1
    10    5   10 1
    11    1   11 1
    12    1   12 1
    13    2   13 1
    14    2   14 1
    15    3   15 1
    16    3   16 1
    17    4   17 1
    18    6   18 1
    19    6   19 1
    20    6   20 1
    21    7   21 1
    22    7   22 1
    23    7   23 1
    24    8   24 1
    25    8   25 1
    26    8   26 1
@<TRIPOS>SUBSTRUCTURE
     1 <0>         1 GROUP 0 A     ****
