@<TRIPOS>MOLECULE
AlkEthOH_c1160
   16    15     1     0     0
SMALL
USER_CHARGES

@<TRIPOS>ATOM
      1 C1         -0.0095   -0.6551    0.8768 CT        1 <0>       -0.09256
      2 C2          1.2444   -0.4434    1.7060 CT        1 <0>       -0.08431
      3 C3          1.2749   -1.3494    2.9273 CT        1 <0>        0.13102
      4 C4          2.5660   -1.9030    4.8269 CT        1 <0>        0.32877
      5 O1          2.6836   -3.2869    4.5294 OH        1 <0>       -0.62663
      6 O2          2.4629   -1.0899    3.6622 OS        1 <0>       -0.41674
      7 H1         -0.0920   -1.6965    0.5497 HC        1 <0>        0.03489
      8 H2         -0.8996   -0.4128    1.4659 HC        1 <0>        0.03489
      9 H3         -0.0053   -0.0150   -0.0111 HC        1 <0>        0.03489
     10 H4          1.3083    0.6043    2.0234 HC        1 <0>        0.05342
     11 H5          2.1333   -0.6260    1.0902 HC        1 <0>        0.05342
     12 H6          0.4147   -1.1588    3.5770 H1        1 <0>        0.03395
     13 H7          1.2712   -2.4035    2.6320 H1        1 <0>        0.03395
     14 H8          1.7232   -1.7322    5.5067 H2        1 <0>        0.03622
     15 H9          3.4797   -1.6052    5.3494 H2        1 <0>        0.03622
     16 H10         2.7478   -3.7589    5.3768 HO        1 <0>        0.40860
@<TRIPOS>BOND
     1    1    2 1
     2    2    3 1
     3    3    6 1
     4    4    5 1
     5    4    6 1
     6    1    7 1
     7    1    8 1
     8    1    9 1
     9    2   10 1
    10    2   11 1
    11    3   12 1
    12    3   13 1
    13    4   14 1
    14    4   15 1
    15    5   16 1
@<TRIPOS>SUBSTRUCTURE
     1 <0>         1 GROUP 0 A     ****
