@<TRIPOS>MOLECULE
AlkEthOH_r408
   29    29     1     0     0
SMALL
USER_CHARGES

@<TRIPOS>ATOM
      1 C1          0.5535   -2.0690   -1.0573 CT        1 <0>       -0.06725
      2 C2         -0.3813   -1.8851    0.1454 CT        1 <0>       -0.06325
      3 C3          0.4222   -1.0153   -2.1615 CT        1 <0>       -0.10816
      4 C4          0.0899   -0.8627    1.1854 CT        1 <0>       -0.10579
      5 C5         -0.9158    1.2181   -0.0221 CT        1 <0>       -0.09294
      6 C6          1.4092    0.1437   -2.0544 CT        1 <0>        0.12936
      7 C7          0.3658    1.7800   -0.6415 CT        1 <0>        0.13545
      8 C8         -0.7413    0.4359    1.2960 CT        1 <0>        0.16238
      9 C9         -2.1274    0.1400    1.8917 CT        1 <0>       -0.12351
     10 O1          1.3928    0.8138   -0.8038 OS        1 <0>       -0.41432
     11 O2         -0.0676    1.3005    2.2222 OH        1 <0>       -0.60131
     12 H1          1.5949   -2.1684   -0.7295 HC        1 <0>        0.04054
     13 H2          0.2881   -3.0345   -1.5092 HC        1 <0>        0.04054
     14 H3         -1.4024   -1.6886   -0.1966 HC        1 <0>        0.03580
     15 H4         -0.4265   -2.8579    0.6540 HC        1 <0>        0.03580
     16 H5          0.6154   -1.5075   -3.1237 HC        1 <0>        0.04151
     17 H6         -0.6064   -0.6505   -2.2209 HC        1 <0>        0.04151
     18 H7          0.0565   -1.3515    2.1707 HC        1 <0>        0.05433
     19 H8          1.1555   -0.6375    1.0648 HC        1 <0>        0.05433
     20 H9         -1.5694    2.0817    0.1638 HC        1 <0>        0.04997
     21 H10        -1.4476    0.6005   -0.7497 HC        1 <0>        0.04997
     22 H11         2.4229   -0.2550   -2.1767 H1        1 <0>        0.04221
     23 H12         1.2593    0.8558   -2.8745 H1        1 <0>        0.04221
     24 H13         0.1441    2.2825   -1.5905 H1        1 <0>        0.05113
     25 H14         0.7678    2.5506    0.0259 H1        1 <0>        0.05113
     26 H15        -2.6933    1.0637    1.9604 HC        1 <0>        0.04046
     27 H16        -2.0086   -0.2891    2.8815 HC        1 <0>        0.04046
     28 H17        -2.6513   -0.5618    1.2505 HC        1 <0>        0.04046
     29 H18        -0.0330    0.8185    3.0598 HO        1 <0>        0.39698
@<TRIPOS>BOND
     1    1    2 1
     2    1    3 1
     3    2    4 1
     4    3    6 1
     5    4    8 1
     6    5    7 1
     7    5    8 1
     8    6   10 1
     9    7   10 1
    10    8    9 1
    11    8   11 1
    12    1   12 1
    13    1   13 1
    14    2   14 1
    15    2   15 1
    16    3   16 1
    17    3   17 1
    18    4   18 1
    19    4   19 1
    20    5   20 1
    21    5   21 1
    22    6   22 1
    23    6   23 1
    24    7   24 1
    25    7   25 1
    26    9   26 1
    27    9   27 1
    28    9   28 1
    29   11   29 1
@<TRIPOS>SUBSTRUCTURE
     1 <0>         1 GROUP 0 A     ****
