@<TRIPOS>MOLECULE
AlkEthOH_c269
   25    24     1     0     0
SMALL
USER_CHARGES

@<TRIPOS>ATOM
      1 C1         -0.3783   -0.0413    2.4442 CT        1 <0>       -0.08826
      2 C2          1.7534   -0.0693    1.1404 CT        1 <0>       -0.08826
      3 C3         -0.1382   -1.7059   -1.6984 CT        1 <0>       -0.13526
      4 C4         -0.3829    1.8538   -0.0610 CT        1 <0>       -0.08309
      5 C5          0.2520   -0.3684    1.0803 CT        1 <0>       -0.09263
      6 C6         -0.0029   -0.1975   -1.5031 CT        1 <0>        0.11208
      7 C7         -0.4834    0.3183   -0.1157 CT        1 <0>        0.16566
      8 O1         -0.7739    0.4372   -2.5296 OH        1 <0>       -0.58812
      9 O2         -1.8775   -0.0092    0.0134 OH        1 <0>       -0.58250
     10 H1         -0.3204    1.0272    2.6738 HC        1 <0>        0.03819
     11 H2          0.1488   -0.5743    3.2438 HC        1 <0>        0.03819
     12 H3         -1.4277   -0.3483    2.4861 HC        1 <0>        0.03819
     13 H4          1.9477    1.0010    1.2537 HC        1 <0>        0.03819
     14 H5          2.2446   -0.3856    0.2133 HC        1 <0>        0.03819
     15 H6          2.2392   -0.5972    1.9666 HC        1 <0>        0.03819
     16 H7         -1.1759   -2.0184   -1.5350 HC        1 <0>        0.04418
     17 H8          0.4675   -2.2571   -0.9713 HC        1 <0>        0.04418
     18 H9          0.1490   -2.0164   -2.7062 HC        1 <0>        0.04418
     19 H10        -0.9037    2.3176   -0.9066 HC        1 <0>        0.05115
     20 H11        -0.8737    2.2574    0.8303 HC        1 <0>        0.05115
     21 H12         0.6562    2.1952   -0.0761 HC        1 <0>        0.05115
     22 H13         0.1332   -1.4541    0.9669 HC        1 <0>        0.03878
     23 H14         1.0387    0.0979   -1.6698 H1        1 <0>        0.03758
     24 H15        -0.3953    0.1443   -3.3707 HO        1 <0>        0.39576
     25 H16        -1.9262   -0.9735   -0.0225 HO        1 <0>        0.39313
@<TRIPOS>BOND
     1    1    5 1
     2    2    5 1
     3    3    6 1
     4    4    7 1
     5    5    7 1
     6    6    7 1
     7    6    8 1
     8    7    9 1
     9    1   10 1
    10    1   11 1
    11    1   12 1
    12    2   13 1
    13    2   14 1
    14    2   15 1
    15    3   16 1
    16    3   17 1
    17    3   18 1
    18    4   19 1
    19    4   20 1
    20    4   21 1
    21    5   22 1
    22    6   23 1
    23    8   24 1
    24    9   25 1
@<TRIPOS>SUBSTRUCTURE
     1 <0>         1 GROUP 0 A     ****
