@<TRIPOS>MOLECULE
AlkEthOH_c450
   23    22     1     0     0
SMALL
USER_CHARGES

@<TRIPOS>ATOM
      1 C1          1.3450    0.5741    1.3463 CT        1 <0>       -0.09412
      2 C2         -0.2901   -0.6444    2.7972 CT        1 <0>       -0.09412
      3 C3         -1.0508    0.1990    0.5561 CT        1 <0>       -0.09772
      4 C4          0.2903   -0.6096   -2.7702 CT        1 <0>        0.33268
      5 C5          0.1396   -0.3665    1.3543 CT        1 <0>       -0.06250
      6 C6         -0.7637    0.4658   -0.9255 CT        1 <0>        0.32767
      7 O1          1.6699   -0.3359   -2.5719 OH        1 <0>       -0.63016
      8 O2         -1.9473    1.0313   -1.4864 OH        1 <0>       -0.62757
      9 O3         -0.4204   -0.7727   -1.5474 OS        1 <0>       -0.45142
     10 H1          1.0938    1.5469    1.7796 HC        1 <0>        0.03533
     11 H2          2.1815    0.1522    1.9136 HC        1 <0>        0.03533
     12 H3          1.6889    0.7558    0.3222 HC        1 <0>        0.03533
     13 H4         -0.6095    0.2784    3.2927 HC        1 <0>        0.03533
     14 H5         -1.1227   -1.3550    2.8347 HC        1 <0>        0.03533
     15 H6          0.5396   -1.0627    3.3768 HC        1 <0>        0.03533
     16 H7         -1.8838   -0.5146    0.6231 HC        1 <0>        0.05525
     17 H8         -1.4148    1.1238    1.0232 HC        1 <0>        0.05525
     18 H9          0.1994   -1.5368   -3.3447 H2        1 <0>        0.04737
     19 H10        -0.1502    0.1948   -3.3680 H2        1 <0>        0.04737
     20 H11         0.4473   -1.3216    0.9109 HC        1 <0>        0.06740
     21 H12         0.0498    1.1936   -1.0219 H2        1 <0>        0.09448
     22 H13         2.0725   -0.2404   -3.4517 HO        1 <0>        0.41021
     23 H14        -2.1315    1.8542   -1.0027 HO        1 <0>        0.40795
@<TRIPOS>BOND
     1    1    5 1
     2    2    5 1
     3    3    5 1
     4    3    6 1
     5    4    7 1
     6    4    9 1
     7    6    8 1
     8    6    9 1
     9    1   10 1
    10    1   11 1
    11    1   12 1
    12    2   13 1
    13    2   14 1
    14    2   15 1
    15    3   16 1
    16    3   17 1
    17    4   18 1
    18    4   19 1
    19    5   20 1
    20    6   21 1
    21    7   22 1
    22    8   23 1
@<TRIPOS>SUBSTRUCTURE
     1 <0>         1 GROUP 0 A     ****
