@<TRIPOS>MOLECULE
AlkEthOH_c410
   30    29     1     0     0
SMALL
USER_CHARGES

@<TRIPOS>ATOM
      1 C1          0.2839   -2.1602   -1.7073 CT        1 <0>       -0.08769
      2 C2         -0.3884   -0.3922   -3.3440 CT        1 <0>       -0.08769
      3 C3          0.9993    0.6547    1.4255 CT        1 <0>       -0.09216
      4 C4         -2.0191    1.4510    1.0904 CT        1 <0>       -0.12281
      5 C5         -1.6307   -0.5180    2.5818 CT        1 <0>       -0.12281
      6 C6          0.0737    0.2116   -0.9017 CT        1 <0>       -0.05742
      7 C7         -0.4786   -0.8432   -1.8858 CT        1 <0>       -0.07255
      8 C8         -0.0279   -0.1393    0.6080 CT        1 <0>       -0.05161
      9 C9         -1.4884    0.0154    1.1490 CT        1 <0>        0.15672
     10 O1         -2.3638   -0.7768    0.3326 OH        1 <0>       -0.60188
     11 H1          1.3481   -2.0269   -1.9290 HC        1 <0>        0.02967
     12 H2          0.1961   -2.5355   -0.6820 HC        1 <0>        0.02967
     13 H3         -0.1030   -2.9288   -2.3848 HC        1 <0>        0.02967
     14 H4          0.6466   -0.1768   -3.6299 HC        1 <0>        0.02967
     15 H5         -0.7692   -1.1694   -4.0155 HC        1 <0>        0.02967
     16 H6         -0.9867    0.5062   -3.5212 HC        1 <0>        0.02967
     17 H7          0.8025    1.7297    1.3678 HC        1 <0>        0.03516
     18 H8          2.0159    0.5107    1.0506 HC        1 <0>        0.03516
     19 H9          0.9795    0.3690    2.4819 HC        1 <0>        0.03516
     20 H10        -1.9403    1.8793    0.0870 HC        1 <0>        0.04192
     21 H11        -1.4580    2.0963    1.7772 HC        1 <0>        0.04192
     22 H12        -3.0621    1.5088    1.4178 HC        1 <0>        0.04192
     23 H13        -1.2570   -1.5466    2.6509 HC        1 <0>        0.04192
     24 H14        -2.6687   -0.5138    2.9268 HC        1 <0>        0.04192
     25 H15        -1.0282    0.0741    3.2801 HC        1 <0>        0.04192
     26 H16        -0.4507    1.1575   -1.0874 HC        1 <0>        0.03604
     27 H17         1.1263    0.3881   -1.1556 HC        1 <0>        0.03604
     28 H18        -1.5296   -1.0455   -1.6500 HC        1 <0>        0.07774
     29 H19         0.2236   -1.2033    0.7068 HC        1 <0>        0.06010
     30 H20        -3.2434   -0.6911    0.7249 HO        1 <0>        0.39496
@<TRIPOS>BOND
     1    1    7 1
     2    2    7 1
     3    3    8 1
     4    4    9 1
     5    5    9 1
     6    6    7 1
     7    6    8 1
     8    8    9 1
     9    9   10 1
    10    1   11 1
    11    1   12 1
    12    1   13 1
    13    2   14 1
    14    2   15 1
    15    2   16 1
    16    3   17 1
    17    3   18 1
    18    3   19 1
    19    4   20 1
    20    4   21 1
    21    4   22 1
    22    5   23 1
    23    5   24 1
    24    5   25 1
    25    6   26 1
    26    6   27 1
    27    7   28 1
    28    8   29 1
    29   10   30 1
@<TRIPOS>SUBSTRUCTURE
     1 <0>         1 GROUP 0 A     ****
