@<TRIPOS>MOLECULE
AlkEthOH_r671
   27    27     1     0     0
SMALL
USER_CHARGES

@<TRIPOS>ATOM
      1 C1         -1.4152   -0.2412   -1.9350 CT        1 <0>       -0.09606
      2 C2         -1.3130   -1.5221   -1.1050 CT        1 <0>        0.13472
      3 C3         -0.4713    0.8614   -1.4517 CT        1 <0>        0.13385
      4 C4          1.2776   -0.0659    0.8304 CT        1 <0>        0.11053
      5 C5          0.4780   -2.2513    0.2861 CT        1 <0>        0.32448
      6 C6          0.4536    1.2396    0.7780 CT        1 <0>        0.14616
      7 C7          1.3249    2.4201    0.3296 CT        1 <0>       -0.10262
      8 C8         -0.1146    1.5496    2.1725 CT        1 <0>       -0.10262
      9 O1          0.0504   -1.9337   -1.0387 OS        1 <0>       -0.45865
     10 O2          0.4292   -1.1554    1.2010 OS        1 <0>       -0.44044
     11 O3         -0.6996    1.0989   -0.0672 OS        1 <0>       -0.41445
     12 H1         -1.1790   -0.4608   -2.9826 HC        1 <0>        0.05295
     13 H2         -2.4515    0.1138   -1.8949 HC        1 <0>        0.05295
     14 H3         -1.7446   -1.3623   -0.1094 H1        1 <0>        0.04804
     15 H4         -1.8862   -2.3217   -1.5861 H1        1 <0>        0.04804
     16 H5          0.5635    0.5849   -1.6722 H1        1 <0>        0.03693
     17 H6         -0.6827    1.7892   -1.9938 H1        1 <0>        0.03693
     18 H7          1.7818   -0.2620   -0.1224 H1        1 <0>        0.04607
     19 H8          2.0631    0.0126    1.5911 H1        1 <0>        0.04607
     20 H9         -0.1482   -3.0578    0.6828 H2        1 <0>        0.06176
     21 H10         1.5046   -2.6302    0.2343 H2        1 <0>        0.06176
     22 H11         0.7230    3.3242    0.3011 HC        1 <0>        0.04560
     23 H12         1.7244    2.2198   -0.6606 HC        1 <0>        0.04560
     24 H13         2.1441    2.5525    1.0308 HC        1 <0>        0.04560
     25 H14        -0.6922    2.4676    2.1289 HC        1 <0>        0.04560
     26 H15         0.7038    1.6671    2.8756 HC        1 <0>        0.04560
     27 H16        -0.7535    0.7316    2.4898 HC        1 <0>        0.04560
@<TRIPOS>BOND
     1    1    2 1
     2    1    3 1
     3    2    9 1
     4    3   11 1
     5    4    6 1
     6    4   10 1
     7    5    9 1
     8    5   10 1
     9    6    7 1
    10    6    8 1
    11    6   11 1
    12    1   12 1
    13    1   13 1
    14    2   14 1
    15    2   15 1
    16    3   16 1
    17    3   17 1
    18    4   18 1
    19    4   19 1
    20    5   20 1
    21    5   21 1
    22    7   22 1
    23    7   23 1
    24    7   24 1
    25    8   25 1
    26    8   26 1
    27    8   27 1
@<TRIPOS>SUBSTRUCTURE
     1 <0>         1 GROUP 0 A     ****
