@<TRIPOS>MOLECULE
AlkEthOH_c1149
   19    18     1     0     0
SMALL
USER_CHARGES

@<TRIPOS>ATOM
      1 C1          3.8099    3.6680    2.9299 CT        1 <0>       -0.09302
      2 C2         -0.9801    0.1104    1.6844 CT        1 <0>       -0.12073
      3 C3          3.0040    2.6673    2.1214 CT        1 <0>       -0.08497
      4 C4          1.7985    2.1551    2.8946 CT        1 <0>        0.13392
      5 C5         -0.0516    0.6841    2.7440 CT        1 <0>        0.32795
      6 O1          0.2829   -0.3274    3.6894 OH        1 <0>       -0.62511
      7 O2          1.1003    1.2158    2.0878 OS        1 <0>       -0.45870
      8 H1          3.1907    4.5198    3.2289 HC        1 <0>        0.03553
      9 H2          4.2000    3.1968    3.8375 HC        1 <0>        0.03553
     10 H3          4.6590    4.0463    2.3519 HC        1 <0>        0.03553
     11 H4         -0.4899   -0.6975    1.1321 HC        1 <0>        0.05300
     12 H5         -1.8808   -0.3108    2.1451 HC        1 <0>        0.05300
     13 H6         -1.3013    0.8867    0.9829 HC        1 <0>        0.05300
     14 H7          3.6414    1.8231    1.8322 HC        1 <0>        0.05217
     15 H8          2.6710    3.1280    1.1837 HC        1 <0>        0.05217
     16 H9          2.1094    1.6574    3.8187 H1        1 <0>        0.03251
     17 H10         1.1170    2.9748    3.1437 H1        1 <0>        0.03251
     18 H11        -0.5725    1.4881    3.2764 H2        1 <0>        0.07244
     19 H12         0.7267   -1.0513    3.2167 HO        1 <0>        0.41327
@<TRIPOS>BOND
     1    1    3 1
     2    2    5 1
     3    3    4 1
     4    4    7 1
     5    5    6 1
     6    5    7 1
     7    1    8 1
     8    1    9 1
     9    1   10 1
    10    2   11 1
    11    2   12 1
    12    2   13 1
    13    3   14 1
    14    3   15 1
    15    4   16 1
    16    4   17 1
    17    5   18 1
    18    6   19 1
@<TRIPOS>SUBSTRUCTURE
     1 <0>         1 GROUP 0 A     ****
