@<TRIPOS>MOLECULE
AlkEthOH_c154
   29    28     1     0     0
SMALL
USER_CHARGES

@<TRIPOS>ATOM
      1 C1          0.8857    1.4410   -2.0244 CT        1 <0>       -0.08872
      2 C2         -1.5608    1.4735   -1.4783 CT        1 <0>       -0.08872
      3 C3          0.1181    1.2061    0.3290 CT        1 <0>       -0.08872
      4 C4          1.2526    5.6429   -0.4274 CT        1 <0>       -0.08872
      5 C5          2.4373    3.4348   -0.3499 CT        1 <0>       -0.08872
      6 C6          0.8855    4.0833    1.4742 CT        1 <0>       -0.08872
      7 C7         -0.1048    3.4572   -0.7333 CT        1 <0>       -0.05598
      8 C8         -0.1622    1.9230   -1.0157 CT        1 <0>       -0.04693
      9 C9          1.1122    4.1627   -0.0566 CT        1 <0>       -0.04693
     10 H1          1.8967    1.7394   -1.7341 HC        1 <0>        0.03371
     11 H2          0.7061    1.8743   -3.0157 HC        1 <0>        0.03371
     12 H3          0.8587    0.3518   -2.1354 HC        1 <0>        0.03371
     13 H4         -2.3361    1.8024   -0.7777 HC        1 <0>        0.03371
     14 H5         -1.8169    1.8541   -2.4687 HC        1 <0>        0.03371
     15 H6         -1.6197    0.3803   -1.5419 HC        1 <0>        0.03371
     16 H7         -0.6018    1.5096    1.0977 HC        1 <0>        0.03371
     17 H8          1.1201    1.4405    0.7066 HC        1 <0>        0.03371
     18 H9          0.0519    0.1177    0.2183 HC        1 <0>        0.03371
     19 H10         0.3253    6.1913   -0.2306 HC        1 <0>        0.03371
     20 H11         1.5222    5.7747   -1.4788 HC        1 <0>        0.03371
     21 H12         2.0455    6.1220    0.1596 HC        1 <0>        0.03371
     22 H13         2.3650    2.3711   -0.0931 HC        1 <0>        0.03371
     23 H14         3.2723    3.8352    0.2282 HC        1 <0>        0.03371
     24 H15         2.6991    3.4978   -1.4119 HC        1 <0>        0.03371
     25 H16         0.7766    3.0441    1.8054 HC        1 <0>        0.03371
     26 H17        -0.0224    4.6201    1.7730 HC        1 <0>        0.03371
     27 H18         1.7264    4.5238    2.0221 HC        1 <0>        0.03371
     28 H19        -0.2800    3.9560   -1.6987 HC        1 <0>        0.03769
     29 H20        -0.9872    3.7143   -0.1280 HC        1 <0>        0.03769
@<TRIPOS>BOND
     1    1    8 1
     2    2    8 1
     3    3    8 1
     4    4    9 1
     5    5    9 1
     6    6    9 1
     7    7    8 1
     8    7    9 1
     9    1   10 1
    10    1   11 1
    11    1   12 1
    12    2   13 1
    13    2   14 1
    14    2   15 1
    15    3   16 1
    16    3   17 1
    17    3   18 1
    18    4   19 1
    19    4   20 1
    20    4   21 1
    21    5   22 1
    22    5   23 1
    23    5   24 1
    24    6   25 1
    25    6   26 1
    26    6   27 1
    27    7   28 1
    28    7   29 1
@<TRIPOS>SUBSTRUCTURE
     1 <0>         1 GROUP 0 A     ****
