@<TRIPOS>MOLECULE
AlkEthOH_c1237
   16    15     1     0     0
SMALL
USER_CHARGES

@<TRIPOS>ATOM
      1 C1          1.1648    2.1533    4.2857 CT        1 <0>       -0.09772
      2 C2          1.0694   -0.1850    0.1514 CT        1 <0>       -0.12719
      3 C3          1.9046    1.9800    2.9764 CT        1 <0>        0.13436
      4 C4          1.7322    1.0078    0.8237 CT        1 <0>        0.33316
      5 O1          1.6392    2.1500   -0.0223 OH        1 <0>       -0.62856
      6 O2          1.1003    1.2158    2.0878 OS        1 <0>       -0.42249
      7 H1          0.2181    2.6788    4.1325 HC        1 <0>        0.04428
      8 H2          0.9589    1.1806    4.7445 HC        1 <0>        0.04428
      9 H3          1.7717    2.7198    4.9998 HC        1 <0>        0.04428
     10 H4          0.0048    0.0045   -0.0183 HC        1 <0>        0.05410
     11 H5          1.5243   -0.3813   -0.8261 HC        1 <0>        0.05410
     12 H6          1.1850   -1.0899    0.7561 HC        1 <0>        0.05410
     13 H7          2.8503    1.4538    3.1368 H1        1 <0>        0.03504
     14 H8          2.1087    2.9528    2.5191 H1        1 <0>        0.03504
     15 H9          2.7941    0.7849    0.9783 H2        1 <0>        0.03317
     16 H10         2.0913    1.9473   -0.8583 HO        1 <0>        0.41005
@<TRIPOS>BOND
     1    1    3 1
     2    2    4 1
     3    3    6 1
     4    4    5 1
     5    4    6 1
     6    1    7 1
     7    1    8 1
     8    1    9 1
     9    2   10 1
    10    2   11 1
    11    2   12 1
    12    3   13 1
    13    3   14 1
    14    4   15 1
    15    5   16 1
@<TRIPOS>SUBSTRUCTURE
     1 <0>         1 GROUP 0 A     ****
