@<TRIPOS>MOLECULE
AlkEthOH_c659
   28    27     1     0     0
SMALL
USER_CHARGES

@<TRIPOS>ATOM
      1 C1         -1.7471   -0.0548   -0.5271 CT        1 <0>       -0.09176
      2 C2          0.3982   -1.5995    3.0731 CT        1 <0>       -0.13040
      3 C3         -0.1053    1.6234   -2.4913 CT        1 <0>       -0.12253
      4 C4          0.8456   -0.6784   -2.2609 CT        1 <0>       -0.12253
      5 C5          0.3749   -0.5184    0.7944 CT        1 <0>       -0.06757
      6 C6         -0.3206    0.4250   -0.2267 CT        1 <0>       -0.04784
      7 C7         -0.3398   -0.6381    2.1486 CT        1 <0>        0.13971
      8 C8          0.5389    0.6258   -1.5184 CT        1 <0>        0.15410
      9 O1         -0.3925    0.6432    2.7682 OH        1 <0>       -0.59729
     10 O2          1.8049    1.1875   -1.1411 OH        1 <0>       -0.60100
     11 H1         -1.7395   -1.0374   -1.0086 HC        1 <0>        0.03441
     12 H2         -2.3379   -0.1681    0.3859 HC        1 <0>        0.03441
     13 H3         -2.2726    0.6377   -1.1920 HC        1 <0>        0.03441
     14 H4          1.4304   -1.2663    3.2267 HC        1 <0>        0.04183
     15 H5         -0.0928   -1.6691    4.0485 HC        1 <0>        0.04183
     16 H6          0.4544   -2.6015    2.6337 HC        1 <0>        0.04183
     17 H7         -0.3462    2.5765   -2.0117 HC        1 <0>        0.04147
     18 H8         -1.0324    1.2131   -2.9092 HC        1 <0>        0.04147
     19 H9          0.5549    1.8183   -3.3440 HC        1 <0>        0.04147
     20 H10         1.3076   -1.4253   -1.6087 HC        1 <0>        0.04147
     21 H11        -0.0741   -1.1121   -2.6720 HC        1 <0>        0.04147
     22 H12         1.5012   -0.5070   -3.1208 HC        1 <0>        0.04147
     23 H13         1.3884   -0.1424    0.9817 HC        1 <0>        0.05717
     24 H14         0.4778   -1.5208    0.3620 HC        1 <0>        0.05717
     25 H15        -0.4006    1.4104    0.2529 HC        1 <0>        0.07963
     26 H16        -1.3655   -0.9945    2.0133 H1        1 <0>        0.02580
     27 H17        -0.8681    0.5268    3.6056 HO        1 <0>        0.39473
     28 H18         2.3082    1.2835   -1.9610 HO        1 <0>        0.39507
@<TRIPOS>BOND
     1    1    6 1
     2    2    7 1
     3    3    8 1
     4    4    8 1
     5    5    6 1
     6    5    7 1
     7    6    8 1
     8    7    9 1
     9    8   10 1
    10    1   11 1
    11    1   12 1
    12    1   13 1
    13    2   14 1
    14    2   15 1
    15    2   16 1
    16    3   17 1
    17    3   18 1
    18    3   19 1
    19    4   20 1
    20    4   21 1
    21    4   22 1
    22    5   23 1
    23    5   24 1
    24    6   25 1
    25    7   26 1
    26    9   27 1
    27   10   28 1
@<TRIPOS>SUBSTRUCTURE
     1 <0>         1 GROUP 0 A     ****
