@<TRIPOS>MOLECULE
AlkEthOH_c516
   34    33     1     0     0
SMALL
USER_CHARGES

@<TRIPOS>ATOM
      1 C1          3.4866   -1.3101    2.6294 CT        1 <0>       -0.10831
      2 C2          4.8395    0.6049    1.7052 CT        1 <0>       -0.10831
      3 C3          2.8900   -2.8093   -1.1280 CT        1 <0>       -0.10755
      4 C4          2.5966   -2.0481   -3.5036 CT        1 <0>       -0.10755
      5 C5          4.3284   -0.9594   -2.0463 CT        1 <0>       -0.10755
      6 C6          0.8744   -0.5011    0.4304 CT        1 <0>       -0.12688
      7 C7          2.2795    1.3868   -0.3616 CT        1 <0>       -0.12688
      8 C8          3.5189   -0.1477    1.6488 CT        1 <0>        0.15072
      9 C9          2.9496   -1.6170   -2.0817 CT        1 <0>        0.18815
     10 C10         2.1510   -0.1426   -0.3425 CT        1 <0>        0.37112
     11 O1          3.3175   -0.6412    0.3318 OS        1 <0>       -0.45212
     12 O2          1.9818   -0.6610   -1.6715 OS        1 <0>       -0.44355
     13 H1          4.2983   -2.0174    2.4337 HC        1 <0>        0.04317
     14 H2          3.5814   -0.9441    3.6574 HC        1 <0>        0.04317
     15 H3          2.5330   -1.8468    2.5737 HC        1 <0>        0.04317
     16 H4          5.6835   -0.0567    1.4876 HC        1 <0>        0.04317
     17 H5          4.9859    1.0439    2.6979 HC        1 <0>        0.04317
     18 H6          4.8512    1.4345    0.9897 HC        1 <0>        0.04317
     19 H7          3.1428   -2.5040   -0.1063 HC        1 <0>        0.04317
     20 H8          1.8961   -3.2684   -1.1178 HC        1 <0>        0.04317
     21 H9          3.6217   -3.5742   -1.4120 HC        1 <0>        0.04317
     22 H10         2.6381   -1.1957   -4.1914 HC        1 <0>        0.04317
     23 H11         1.5717   -2.4336   -3.5515 HC        1 <0>        0.04317
     24 H12         3.2763   -2.8236   -3.8712 HC        1 <0>        0.04317
     25 H13         4.3714   -0.1041   -2.7304 HC        1 <0>        0.04317
     26 H14         4.5831   -0.6104   -1.0403 HC        1 <0>        0.04317
     27 H15         5.1030   -1.6602   -2.3783 HC        1 <0>        0.04317
     28 H16         0.7263   -1.5849    0.4791 HC        1 <0>        0.04816
     29 H17         0.9039   -0.0964    1.4483 HC        1 <0>        0.04816
     30 H18        -0.0117   -0.0653   -0.0449 HC        1 <0>        0.04816
     31 H19         3.1764    1.7069   -0.9019 HC        1 <0>        0.04816
     32 H20         1.3990    1.8500   -0.8209 HC        1 <0>        0.04816
     33 H21         2.3411    1.7915    0.6548 HC        1 <0>        0.04816
     34 H22         2.6965    0.5403    1.8705 H1        1 <0>        0.04220
@<TRIPOS>BOND
     1    1    8 1
     2    2    8 1
     3    3    9 1
     4    4    9 1
     5    5    9 1
     6    6   10 1
     7    7   10 1
     8    8   11 1
     9    9   12 1
    10   10   11 1
    11   10   12 1
    12    1   13 1
    13    1   14 1
    14    1   15 1
    15    2   16 1
    16    2   17 1
    17    2   18 1
    18    3   19 1
    19    3   20 1
    20    3   21 1
    21    4   22 1
    22    4   23 1
    23    4   24 1
    24    5   25 1
    25    5   26 1
    26    5   27 1
    27    6   28 1
    28    6   29 1
    29    6   30 1
    30    7   31 1
    31    7   32 1
    32    7   33 1
    33    8   34 1
@<TRIPOS>SUBSTRUCTURE
     1 <0>         1 GROUP 0 A     ****
