@<TRIPOS>MOLECULE
AlkEthOH_r837
   24    24     1     0     0
SMALL
USER_CHARGES

@<TRIPOS>ATOM
      1 C1         -0.8025   -0.5032    0.5530 CT        1 <0>       -0.07893
      2 C2         -0.7834   -1.9982    0.2497 CT        1 <0>       -0.07548
      3 C3         -2.2946   -0.7989   -1.2727 CT        1 <0>       -0.07209
      4 C4         -2.1717   -0.0561    0.0569 CT        1 <0>       -0.07246
      5 C5         -1.6654   -2.1863   -1.0091 CT        1 <0>       -0.05829
      6 C6         -2.2914    1.4513   -0.0869 CT        1 <0>       -0.08414
      7 C7         -2.7563   -3.2340   -0.7436 CT        1 <0>       -0.08260
      8 C8         -0.8239   -2.6330   -2.2104 CT        1 <0>       -0.08260
      9 H1         -0.6581   -0.3003    1.6187 HC        1 <0>        0.04217
     10 H2          0.0001    0.0001    0.0000 HC        1 <0>        0.04217
     11 H3          0.2429   -2.3549    0.1115 HC        1 <0>        0.04272
     12 H4         -1.1995   -2.5429    1.1062 HC        1 <0>        0.04272
     13 H5         -3.3373   -0.8605   -1.6033 HC        1 <0>        0.04388
     14 H6         -1.7392   -0.2635   -2.0537 HC        1 <0>        0.04388
     15 H7         -2.9465   -0.4128    0.7481 HC        1 <0>        0.04749
     16 H8         -1.5285    1.8269   -0.7714 HC        1 <0>        0.03346
     17 H9         -2.1598    1.9346    0.8830 HC        1 <0>        0.03346
     18 H10        -3.2750    1.7161   -0.4795 HC        1 <0>        0.03346
     19 H11        -3.3654   -3.3543   -1.6346 HC        1 <0>        0.03353
     20 H12        -3.3806   -2.9038    0.0812 HC        1 <0>        0.03353
     21 H13        -2.2916   -4.1824   -0.4906 HC        1 <0>        0.03353
     22 H14        -1.4665   -2.7571   -3.0779 HC        1 <0>        0.03353
     23 H15        -0.3384   -3.5782   -1.9822 HC        1 <0>        0.03353
     24 H16        -0.0688   -1.8812   -2.4245 HC        1 <0>        0.03353
@<TRIPOS>BOND
     1    1    2 1
     2    1    4 1
     3    2    5 1
     4    3    4 1
     5    3    5 1
     6    4    6 1
     7    5    7 1
     8    5    8 1
     9    1    9 1
    10    1   10 1
    11    2   11 1
    12    2   12 1
    13    3   13 1
    14    3   14 1
    15    4   15 1
    16    6   16 1
    17    6   17 1
    18    6   18 1
    19    7   19 1
    20    7   20 1
    21    7   21 1
    22    8   22 1
    23    8   23 1
    24    8   24 1
@<TRIPOS>SUBSTRUCTURE
     1 <0>         1 GROUP 0 A     ****
