@<TRIPOS>MOLECULE
AlkEthOH_r856
   22    22     1     0     0
SMALL
USER_CHARGES

@<TRIPOS>ATOM
      1 C1         -0.1360    1.0377    0.3283 CT        1 <0>       -0.07637
      2 C2         -1.6150    1.4039    0.2563 CT        1 <0>       -0.10810
      3 C3          0.3844    1.1921    1.7537 CT        1 <0>       -0.10810
      4 C4         -2.4116    0.6430    1.3181 CT        1 <0>        0.14121
      5 C5         -0.5126    0.4406    2.7393 CT        1 <0>        0.14121
      6 C6         -3.8677    1.0872    1.3329 CT        1 <0>       -0.09068
      7 C7         -0.0697    0.6805    4.1760 CT        1 <0>       -0.09068
      8 O1         -1.8659    0.8912    2.6181 OS        1 <0>       -0.41827
      9 H1         -0.0001   -0.0000    0.0000 HC        1 <0>        0.04084
     10 H2          0.4421    1.6702   -0.3542 HC        1 <0>        0.04084
     11 H3         -1.7115    2.4839    0.4261 HC        1 <0>        0.04954
     12 H4         -2.0054    1.1916   -0.7452 HC        1 <0>        0.04954
     13 H5          1.4165    0.8299    1.8173 HC        1 <0>        0.04954
     14 H6          0.3936    2.2607    2.0040 HC        1 <0>        0.04954
     15 H7         -2.3759   -0.4357    1.1201 H1        1 <0>        0.03234
     16 H8         -0.4798   -0.6376    2.5377 H1        1 <0>        0.03234
     17 H9         -3.9300    2.1582    1.5282 HC        1 <0>        0.04421
     18 H10        -4.4133    0.5542    2.1121 HC        1 <0>        0.04421
     19 H11        -4.3326    0.8766    0.3692 HC        1 <0>        0.04421
     20 H12        -0.0937    1.7470    4.4016 HC        1 <0>        0.04421
     21 H13         0.9464    0.3121    4.3204 HC        1 <0>        0.04421
     22 H14        -0.7354    0.1591    4.8645 HC        1 <0>        0.04421
@<TRIPOS>BOND
     1    1    2 1
     2    1    3 1
     3    2    4 1
     4    3    5 1
     5    4    6 1
     6    4    8 1
     7    5    7 1
     8    5    8 1
     9    1    9 1
    10    1   10 1
    11    2   11 1
    12    2   12 1
    13    3   13 1
    14    3   14 1
    15    4   15 1
    16    5   16 1
    17    6   17 1
    18    6   18 1
    19    6   19 1
    20    7   20 1
    21    7   21 1
    22    7   22 1
@<TRIPOS>SUBSTRUCTURE
     1 <0>         1 GROUP 0 A     ****
