@<TRIPOS>MOLECULE
AlkEthOH_c1128
   27    26     1     0     0
SMALL
USER_CHARGES

@<TRIPOS>ATOM
      1 C1         -3.9865    1.1634    0.2512 CT        1 <0>       -0.09171
      2 C2          2.3817   -1.4360    0.8442 CT        1 <0>       -0.12143
      3 C3          2.8058    0.7087   -0.3895 CT        1 <0>       -0.12143
      4 C4         -2.5525    1.0340    0.7395 CT        1 <0>       -0.08005
      5 C5         -1.6783    0.3014   -0.2781 CT        1 <0>       -0.07920
      6 C6         -0.2277    0.2026    0.2027 CT        1 <0>       -0.07599
      7 C7          0.6349   -0.5642   -0.8036 CT        1 <0>       -0.06982
      8 C8          2.1338   -0.6634   -0.4530 CT        1 <0>        0.15159
      9 O1          2.7745   -1.3832   -1.5152 OH        1 <0>       -0.60353
     10 H1         -4.0153    1.7001   -0.7023 HC        1 <0>        0.03315
     11 H2         -4.4400    0.1785    0.1004 HC        1 <0>        0.03315
     12 H3         -4.5978    1.7169    0.9711 HC        1 <0>        0.03315
     13 H4          1.9026   -2.4213    0.8059 HC        1 <0>        0.04191
     14 H5          3.4480   -1.5837    1.0392 HC        1 <0>        0.04191
     15 H6          1.9410   -0.9123    1.7000 HC        1 <0>        0.04191
     16 H7          2.6334    1.2696   -1.3151 HC        1 <0>        0.04191
     17 H8          2.4457    1.3071    0.4526 HC        1 <0>        0.04191
     18 H9          3.8928    0.6040   -0.2913 HC        1 <0>        0.04191
     19 H10        -2.5450    0.4948    1.6937 HC        1 <0>        0.03701
     20 H11        -2.1456    2.0341    0.9287 HC        1 <0>        0.03701
     21 H12        -2.0786   -0.7055   -0.4482 HC        1 <0>        0.04067
     22 H13        -1.7121    0.8295   -1.2390 HC        1 <0>        0.04067
     23 H14         0.1699    1.2131    0.3466 HC        1 <0>        0.03980
     24 H15        -0.2075   -0.3000    1.1758 HC        1 <0>        0.03980
     25 H16         0.2311   -1.5787   -0.9242 HC        1 <0>        0.05414
     26 H17         0.5341   -0.1009   -1.7948 HC        1 <0>        0.05414
     27 H18         3.7138   -1.4163   -1.2869 HO        1 <0>        0.39742
@<TRIPOS>BOND
     1    1    4 1
     2    2    8 1
     3    3    8 1
     4    4    5 1
     5    5    6 1
     6    6    7 1
     7    7    8 1
     8    8    9 1
     9    1   10 1
    10    1   11 1
    11    1   12 1
    12    2   13 1
    13    2   14 1
    14    2   15 1
    15    3   16 1
    16    3   17 1
    17    3   18 1
    18    4   19 1
    19    4   20 1
    20    5   21 1
    21    5   22 1
    22    6   23 1
    23    6   24 1
    24    7   25 1
    25    7   26 1
    26    9   27 1
@<TRIPOS>SUBSTRUCTURE
     1 <0>         1 GROUP 0 A     ****
