@<TRIPOS>MOLECULE
AlkEthOH_r839
   21    21     1     0     0
SMALL
USER_CHARGES

@<TRIPOS>ATOM
      1 C1         -0.2963   -0.4196    0.9686 CT        1 <0>       -0.07812
      2 C2         -0.2565   -1.9494    0.8990 CT        1 <0>       -0.07812
      3 C3         -2.5544   -1.2470    0.8512 CT        1 <0>       -0.07632
      4 C4         -1.7383   -0.0484    1.3281 CT        1 <0>       -0.07169
      5 C5         -1.6691   -2.4246    1.2496 CT        1 <0>       -0.07169
      6 C6         -2.1908    1.2652    0.7134 CT        1 <0>       -0.08470
      7 C7         -2.0540   -3.7222    0.5595 CT        1 <0>       -0.08470
      8 H1          0.4053   -0.0354    1.7169 HC        1 <0>        0.04072
      9 H2         -0.0002   -0.0000   -0.0003 HC        1 <0>        0.04072
     10 H3          0.0330   -2.2622   -0.1112 HC        1 <0>        0.04072
     11 H4          0.4837   -2.3631    1.5921 HC        1 <0>        0.04072
     12 H5         -3.5375   -1.2913    1.3304 HC        1 <0>        0.04430
     13 H6         -2.7038   -1.2156   -0.2353 HC        1 <0>        0.04430
     14 H7         -1.8207    0.0265    2.4207 HC        1 <0>        0.04607
     15 H8         -1.7341   -2.5693    2.3363 HC        1 <0>        0.04607
     16 H9         -2.1186    1.2171   -0.3747 HC        1 <0>        0.03362
     17 H10        -1.5638    2.0843    1.0701 HC        1 <0>        0.03362
     18 H11        -3.2271    1.4723    0.9868 HC        1 <0>        0.03362
     19 H12        -1.9972   -3.6043   -0.5242 HC        1 <0>        0.03362
     20 H13        -3.0737   -4.0042    0.8281 HC        1 <0>        0.03362
     21 H14        -1.3777   -4.5244    0.8605 HC        1 <0>        0.03362
@<TRIPOS>BOND
     1    1    2 1
     2    1    4 1
     3    2    5 1
     4    3    4 1
     5    3    5 1
     6    4    6 1
     7    5    7 1
     8    1    8 1
     9    1    9 1
    10    2   10 1
    11    2   11 1
    12    3   12 1
    13    3   13 1
    14    4   14 1
    15    5   15 1
    16    6   16 1
    17    6   17 1
    18    6   18 1
    19    7   19 1
    20    7   20 1
    21    7   21 1
@<TRIPOS>SUBSTRUCTURE
     1 <0>         1 GROUP 0 A     ****
