@<TRIPOS>MOLECULE
AlkEthOH_r123
   19    19     1     0     0
SMALL
USER_CHARGES

@<TRIPOS>ATOM
      1 C1          0.4013   -1.2758   -1.4228 CT        1 <0>        0.10103
      2 C2         -0.0887   -1.8469   -0.0939 CT        1 <0>        0.11230
      3 C3          0.2339    1.3971    0.7772 CT        1 <0>        0.08679
      4 C4          0.3293    1.1047   -1.6066 CT        1 <0>        0.31745
      5 C5         -0.6156    0.1669    1.0847 CT        1 <0>        0.29797
      6 O1         -0.3722   -0.1282   -1.7698 OS        1 <0>       -0.46357
      7 O2          1.0439    1.2540   -0.3833 OS        1 <0>       -0.42432
      8 O3          0.2114   -0.9954    1.0139 OS        1 <0>       -0.38735
      9 O4         -1.1434    0.3236    2.4006 OH        1 <0>       -0.59002
     10 H1          1.4727   -1.0466   -1.3913 H1        1 <0>        0.06035
     11 H2          0.2398   -2.0201   -2.2092 H1        1 <0>        0.06035
     12 H3         -1.1657   -2.0505   -0.1174 H1        1 <0>        0.05955
     13 H4          0.4233   -2.7967    0.0921 H1        1 <0>        0.05955
     14 H5         -0.3902    2.2951    0.6963 H1        1 <0>        0.05981
     15 H6          0.9214    1.5793    1.6117 H1        1 <0>        0.05981
     16 H7          1.0545    1.1891   -2.4232 H2        1 <0>        0.06476
     17 H8         -0.3851    1.9269   -1.7226 H2        1 <0>        0.06476
     18 H9         -1.4700    0.1069    0.4014 H2        1 <0>        0.05648
     19 H10        -1.6753    1.1340    2.3888 HO        1 <0>        0.40430
@<TRIPOS>BOND
     1    1    2 1
     2    1    6 1
     3    2    8 1
     4    3    5 1
     5    3    7 1
     6    4    6 1
     7    4    7 1
     8    5    8 1
     9    5    9 1
    10    1   10 1
    11    1   11 1
    12    2   12 1
    13    2   13 1
    14    3   14 1
    15    3   15 1
    16    4   16 1
    17    4   17 1
    18    5   18 1
    19    9   19 1
@<TRIPOS>SUBSTRUCTURE
     1 <0>         1 GROUP 0 A     ****
