@<TRIPOS>MOLECULE
AlkEthOH_c107
   26    25     1     0     0
SMALL
USER_CHARGES

@<TRIPOS>ATOM
      1 C1          2.8354   -0.8647   -1.9778 CT        1 <0>       -0.12497
      2 C2         -0.6611    1.8298    1.4818 CT        1 <0>       -0.12425
      3 C3         -2.4362    0.0695    1.5923 CT        1 <0>       -0.12425
      4 C4         -0.5198   -0.2570    0.0001 CT        1 <0>       -0.10166
      5 C5          1.3443   -0.8515   -1.6743 CT        1 <0>        0.10708
      6 C6          0.9829   -0.1926   -0.3311 CT        1 <0>        0.16380
      7 C7         -0.9426    0.3301    1.3685 CT        1 <0>        0.15408
      8 O1          0.9118   -2.2151   -1.6416 OH        1 <0>       -0.60895
      9 O2          1.7315   -0.8541    0.6913 OH        1 <0>       -0.59115
     10 O3         -0.2537   -0.3430    2.4233 OH        1 <0>       -0.59831
     11 H1          3.3951   -1.3439   -1.1671 HC        1 <0>        0.04724
     12 H2          3.0357   -1.4473   -2.8838 HC        1 <0>        0.04724
     13 H3          3.2292    0.1438   -2.1301 HC        1 <0>        0.04724
     14 H4          0.3994    2.0526    1.3270 HC        1 <0>        0.04326
     15 H5         -0.9642    2.2232    2.4578 HC        1 <0>        0.04326
     16 H6         -1.2433    2.3901    0.7409 HC        1 <0>        0.04326
     17 H7         -2.6614   -1.0006    1.5156 HC        1 <0>        0.04326
     18 H8         -2.7406    0.3764    2.5997 HC        1 <0>        0.04326
     19 H9         -3.0539    0.6069    0.8653 HC        1 <0>        0.04326
     20 H10        -1.0813    0.2608   -0.7864 HC        1 <0>        0.06416
     21 H11        -0.8212   -1.3133   -0.0198 HC        1 <0>        0.06416
     22 H12         0.8058   -0.3682   -2.4976 H1        1 <0>        0.02856
     23 H13         1.3247    0.8480   -0.3427 H1        1 <0>        0.06329
     24 H14         1.1031   -2.5806   -2.5174 HO        1 <0>        0.40185
     25 H15         1.4200   -1.7711    0.7063 HO        1 <0>        0.42388
     26 H16        -0.6008    0.0203    3.2516 HO        1 <0>        0.40140
@<TRIPOS>BOND
     1    1    5 1
     2    2    7 1
     3    3    7 1
     4    4    6 1
     5    4    7 1
     6    5    6 1
     7    5    8 1
     8    6    9 1
     9    7   10 1
    10    1   11 1
    11    1   12 1
    12    1   13 1
    13    2   14 1
    14    2   15 1
    15    2   16 1
    16    3   17 1
    17    3   18 1
    18    3   19 1
    19    4   20 1
    20    4   21 1
    21    5   22 1
    22    6   23 1
    23    8   24 1
    24    9   25 1
    25   10   26 1
@<TRIPOS>SUBSTRUCTURE
     1 <0>         1 GROUP 0 A     ****
