@<TRIPOS>MOLECULE
AlkEthOH_r443
   32    32     1     0     0
SMALL
USER_CHARGES

@<TRIPOS>ATOM
      1 C1         -0.6366   -1.7982   -1.0812 CT        1 <0>       -0.07366
      2 C2         -0.8349   -2.6368    0.1825 CT        1 <0>       -0.10823
      3 C3         -1.1920   -0.3638   -0.9952 CT        1 <0>       -0.06967
      4 C4          0.1897   -2.3707    1.2762 CT        1 <0>        0.13281
      5 C5          1.1200   -0.1823    1.0765 CT        1 <0>        0.10607
      6 C6         -0.1804    0.8268   -0.9626 CT        1 <0>       -0.02642
      7 C7          0.4683    1.0730    0.4625 CT        1 <0>        0.14838
      8 C8          0.9065    0.6373   -2.0534 CT        1 <0>       -0.08836
      9 C9         -0.9733    2.0933   -1.3996 CT        1 <0>       -0.08836
     10 C10        -0.5180    1.6786    1.4808 CT        1 <0>       -0.11782
     11 O1          0.1412   -1.0153    1.6875 OS        1 <0>       -0.41603
     12 O2          1.5095    2.0582    0.3259 OH        1 <0>       -0.60699
     13 H1          0.4089   -1.8371   -1.3949 HC        1 <0>        0.04027
     14 H2         -1.1972   -2.3065   -1.8779 HC        1 <0>        0.04027
     15 H3         -1.8453   -2.4675    0.5745 HC        1 <0>        0.04659
     16 H4         -0.7747   -3.6982   -0.0867 HC        1 <0>        0.04659
     17 H5         -1.8078   -0.2378   -1.8984 HC        1 <0>        0.04512
     18 H6         -1.9025   -0.2762   -0.1650 HC        1 <0>        0.04512
     19 H7         -0.0706   -2.9800    2.1488 H1        1 <0>        0.04344
     20 H8          1.1987   -2.6737    0.9720 H1        1 <0>        0.04344
     21 H9          1.7348   -0.7116    0.3408 H1        1 <0>        0.04265
     22 H10         1.8171    0.1160    1.8702 H1        1 <0>        0.04265
     23 H11         1.5908    1.4730   -2.0081 HC        1 <0>        0.03880
     24 H12         0.4234    0.6004   -3.0197 HC        1 <0>        0.03880
     25 H13         1.4315   -0.2879   -1.8610 HC        1 <0>        0.03880
     26 H14        -0.2994    2.9357   -1.3871 HC        1 <0>        0.03880
     27 H15        -1.7823    2.2437   -0.7019 HC        1 <0>        0.03880
     28 H16        -1.3554    1.9270   -2.3947 HC        1 <0>        0.03880
     29 H17        -0.9759    2.5609    1.0488 HC        1 <0>        0.04722
     30 H18         0.0228    1.9475    2.3807 HC        1 <0>        0.04722
     31 H19        -1.2806    0.9448    1.7146 HC        1 <0>        0.04722
     32 H20         1.8406    2.2132    1.2195 HO        1 <0>        0.39768
@<TRIPOS>BOND
     1    1    2 1
     2    1    3 1
     3    2    4 1
     4    3    6 1
     5    4   11 1
     6    5    7 1
     7    5   11 1
     8    6    7 1
     9    6    8 1
    10    6    9 1
    11    7   10 1
    12    7   12 1
    13    1   13 1
    14    1   14 1
    15    2   15 1
    16    2   16 1
    17    3   17 1
    18    3   18 1
    19    4   19 1
    20    4   20 1
    21    5   21 1
    22    5   22 1
    23    8   23 1
    24    8   24 1
    25    8   25 1
    26    9   26 1
    27    9   27 1
    28    9   28 1
    29   10   29 1
    30   10   30 1
    31   10   31 1
    32   12   32 1
@<TRIPOS>SUBSTRUCTURE
     1 <0>         1 GROUP 0 A     ****
