@<TRIPOS>MOLECULE
AlkEthOH_r695
   28    28     1     0     0
SMALL
USER_CHARGES

@<TRIPOS>ATOM
      1 C1         -1.8510   -0.7206   -1.4015 CT        1 <0>       -0.07361
      2 C2         -1.9598   -1.2745    0.0256 CT        1 <0>       -0.07363
      3 C3         -2.0133    0.8017   -1.5086 CT        1 <0>       -0.09053
      4 C4         -0.7412   -2.0832    0.4891 CT        1 <0>       -0.10703
      5 C5         -1.0862    1.6228   -0.6148 CT        1 <0>        0.14414
      6 C6          0.6052   -1.3587    0.3783 CT        1 <0>        0.34611
      7 C7          1.0263    1.0253    0.3507 CT        1 <0>        0.52952
      8 C8          2.4910    0.8439   -0.0643 CT        1 <0>       -0.11270
      9 O1          0.2768    1.2774   -0.8494 OS        1 <0>       -0.43956
     10 O2          0.5574   -0.1180    1.0812 OS        1 <0>       -0.46145
     11 O3          1.6446   -2.1869    0.8992 OH        1 <0>       -0.61930
     12 O4          1.0503    2.1708    1.2144 OH        1 <0>       -0.60644
     13 H1         -0.9152   -1.0207   -1.8831 HC        1 <0>        0.04093
     14 H2         -2.6424   -1.1784   -2.0094 HC        1 <0>        0.04093
     15 H3         -2.1695   -0.4844    0.7533 HC        1 <0>        0.04787
     16 H4         -2.8316   -1.9406    0.0693 HC        1 <0>        0.04787
     17 H5         -1.8325    1.0801   -2.5543 HC        1 <0>        0.04562
     18 H6         -3.0518    1.0725   -1.2838 HC        1 <0>        0.04562
     19 H7         -0.9068   -2.3748    1.5347 HC        1 <0>        0.05236
     20 H8         -0.6870   -3.0233   -0.0748 HC        1 <0>        0.05236
     21 H9         -1.2020    2.6853   -0.8552 H1        1 <0>        0.05411
     22 H10        -1.3728    1.5035    0.4346 H1        1 <0>        0.05411
     23 H11         0.8290   -1.1998   -0.6965 H2        1 <0>        0.04808
     24 H12         3.0972    0.6501    0.8168 HC        1 <0>        0.06442
     25 H13         2.8445    1.7475   -0.5541 HC        1 <0>        0.06442
     26 H14         2.5730    0.0052   -0.7508 HC        1 <0>        0.06442
     27 H15         1.6437   -2.9957    0.3654 HO        1 <0>        0.40780
     28 H16         1.6345    1.9383    1.9491 HO        1 <0>        0.43356
@<TRIPOS>BOND
     1    1    2 1
     2    1    3 1
     3    2    4 1
     4    3    5 1
     5    4    6 1
     6    5    9 1
     7    6   10 1
     8    6   11 1
     9    7    8 1
    10    7    9 1
    11    7   10 1
    12    7   12 1
    13    1   13 1
    14    1   14 1
    15    2   15 1
    16    2   16 1
    17    3   17 1
    18    3   18 1
    19    4   19 1
    20    4   20 1
    21    5   21 1
    22    5   22 1
    23    6   23 1
    24    8   24 1
    25    8   25 1
    26    8   26 1
    27   11   27 1
    28   12   28 1
@<TRIPOS>SUBSTRUCTURE
     1 <0>         1 GROUP 0 A     ****
