@<TRIPOS>MOLECULE
AlkEthOH_c1065
   28    27     1     0     0
SMALL
USER_CHARGES

@<TRIPOS>ATOM
      1 C1         -1.3826    0.2369    2.8651 CT        1 <0>       -0.09271
      2 C2         -0.0670   -2.0136   -3.2400 CT        1 <0>       -0.10583
      3 C3         -2.1173   -0.6391   -2.7311 CT        1 <0>       -0.10583
      4 C4          1.9630   -0.1274   -0.8649 CT        1 <0>       -0.14705
      5 C5         -1.2098    0.3138    1.3555 CT        1 <0>       -0.07709
      6 C6          0.2550    0.0973    0.9499 CT        1 <0>       -0.09002
      7 C7         -0.6185   -0.7920   -2.5209 CT        1 <0>        0.14931
      8 C8          0.4780    0.1238   -0.5776 CT        1 <0>        0.35039
      9 O1          0.1118    1.4267   -1.0353 OH        1 <0>       -0.62573
     10 O2         -0.3507   -0.9072   -1.1312 OS        1 <0>       -0.41995
     11 H1         -0.7531    0.9851    3.3569 HC        1 <0>        0.03119
     12 H2         -1.0959   -0.7495    3.2431 HC        1 <0>        0.03119
     13 H3         -2.4221    0.4264    3.1512 HC        1 <0>        0.03119
     14 H4         -0.5606   -2.9299   -2.9020 HC        1 <0>        0.04108
     15 H5         -0.2114   -1.9167   -4.3214 HC        1 <0>        0.04108
     16 H6          1.0114   -2.1151   -3.0750 HC        1 <0>        0.04108
     17 H7         -2.6597   -1.5226   -2.3811 HC        1 <0>        0.04108
     18 H8         -2.3399   -0.4897   -3.7931 HC        1 <0>        0.04108
     19 H9         -2.5017    0.2402   -2.2026 HC        1 <0>        0.04108
     20 H10         2.1669   -0.1171   -1.9406 HC        1 <0>        0.04910
     21 H11         2.5939    0.6393   -0.4026 HC        1 <0>        0.04910
     22 H12         2.2890   -1.0855   -0.4453 HC        1 <0>        0.04910
     23 H13        -1.8489   -0.4434    0.8874 HC        1 <0>        0.05488
     24 H14        -1.5578    1.2932    1.0085 HC        1 <0>        0.05488
     25 H15         0.8625    0.8800    1.4224 HC        1 <0>        0.04789
     26 H16         0.5861   -0.8698    1.3500 HC        1 <0>        0.04789
     27 H17        -0.1056    0.1061   -2.8804 H1        1 <0>        0.06060
     28 H18         0.6551    2.0804   -0.5642 HO        1 <0>        0.41102
@<TRIPOS>BOND
     1    1    5 1
     2    2    7 1
     3    3    7 1
     4    4    8 1
     5    5    6 1
     6    6    8 1
     7    7   10 1
     8    8    9 1
     9    8   10 1
    10    1   11 1
    11    1   12 1
    12    1   13 1
    13    2   14 1
    14    2   15 1
    15    2   16 1
    16    3   17 1
    17    3   18 1
    18    3   19 1
    19    4   20 1
    20    4   21 1
    21    4   22 1
    22    5   23 1
    23    5   24 1
    24    6   25 1
    25    6   26 1
    26    7   27 1
    27    9   28 1
@<TRIPOS>SUBSTRUCTURE
     1 <0>         1 GROUP 0 A     ****
