@<TRIPOS>MOLECULE
AlkEthOH_r129
   16    16     1     0     0
SMALL
USER_CHARGES

@<TRIPOS>ATOM
      1 C1          0.8119   -1.6869    0.3532 CT        1 <0>        0.09637
      2 C2          0.9438   -0.4833    1.2772 CT        1 <0>        0.11585
      3 C3         -0.1668   -0.4238   -1.4188 CT        1 <0>        0.32515
      4 C4         -0.4402    1.2099    0.2999 CT        1 <0>        0.52496
      5 O1          0.8630   -1.3269   -1.0249 OS        1 <0>       -0.43038
      6 O2         -0.2989    0.2122    1.3141 OS        1 <0>       -0.49797
      7 O3          0.0989    0.9049   -0.9888 OS        1 <0>       -0.45465
      8 O4         -1.8117    1.5938    0.1881 OH        1 <0>       -0.62481
      9 H1          1.6475   -2.3720    0.5284 H1        1 <0>        0.05994
     10 H2         -0.1194   -2.2337    0.5407 H1        1 <0>        0.05994
     11 H3          1.1374   -0.8356    2.2953 H1        1 <0>        0.06451
     12 H4          1.7603    0.1860    0.9832 H1        1 <0>        0.06451
     13 H5         -0.1613   -0.4066   -2.5128 H2        1 <0>        0.07940
     14 H6         -1.1569   -0.7773   -1.1040 H2        1 <0>        0.07940
     15 H7          0.1075    2.0923    0.6507 H3        1 <0>        0.10119
     16 H8         -2.0687    1.9433    1.0544 HO        1 <0>        0.43659
@<TRIPOS>BOND
     1    1    2 1
     2    1    5 1
     3    2    6 1
     4    3    5 1
     5    3    7 1
     6    4    6 1
     7    4    7 1
     8    4    8 1
     9    1    9 1
    10    1   10 1
    11    2   11 1
    12    2   12 1
    13    3   13 1
    14    3   14 1
    15    4   15 1
    16    8   16 1
@<TRIPOS>SUBSTRUCTURE
     1 <0>         1 GROUP 0 A     ****
