@<TRIPOS>MOLECULE
AlkEthOH_r1143
   24    24     1     0     0
SMALL
USER_CHARGES

@<TRIPOS>ATOM
      1 C1          1.0857    0.2292    1.8241 CT        1 <0>        0.09965
      2 C2          0.5356    1.4549    1.1109 CT        1 <0>        0.10506
      3 C3          0.4595   -1.2972    0.0986 CT        1 <0>        0.33271
      4 C4         -0.8765    0.5755   -0.6408 CT        1 <0>        0.34715
      5 C5          0.9936   -2.5653   -0.5518 CT        1 <0>       -0.08808
      6 C6         -0.7749    1.6697   -1.7096 CT        1 <0>       -0.10672
      7 C7         -2.2660   -0.0646   -0.7368 CT        1 <0>       -0.10672
      8 O1          1.5131   -0.7767    0.9106 OS        1 <0>       -0.42873
      9 O2         -0.7854    1.1805    0.6539 OS        1 <0>       -0.45928
     10 O3          0.1154   -0.4062   -0.9592 OS        1 <0>       -0.46169
     11 H1          1.9657    0.5146    2.4090 H1        1 <0>        0.05648
     12 H2          0.3478   -0.2015    2.5104 H1        1 <0>        0.05648
     13 H3          0.4530    2.2769    1.8290 H1        1 <0>        0.06451
     14 H4          1.1863    1.7800    0.2929 H1        1 <0>        0.06451
     15 H5         -0.4069   -1.5632    0.7158 H2        1 <0>        0.04581
     16 H6          1.8583   -2.3315   -1.1738 HC        1 <0>        0.05470
     17 H7          0.2229   -3.0190   -1.1759 HC        1 <0>        0.05470
     18 H8          1.2936   -3.2812    0.2143 HC        1 <0>        0.05470
     19 H9          0.2048    2.1375   -1.6589 HC        1 <0>        0.05246
     20 H10        -1.5424    2.4195   -1.5362 HC        1 <0>        0.05246
     21 H11        -0.9148    1.2304   -2.6939 HC        1 <0>        0.05246
     22 H12        -2.3594   -0.8449    0.0141 HC        1 <0>        0.05246
     23 H13        -2.3996   -0.4968   -1.7250 HC        1 <0>        0.05246
     24 H14        -3.0274    0.6924   -0.5675 HC        1 <0>        0.05246
@<TRIPOS>BOND
     1    1    2 1
     2    1    8 1
     3    2    9 1
     4    3    5 1
     5    3    8 1
     6    3   10 1
     7    4    6 1
     8    4    7 1
     9    4    9 1
    10    4   10 1
    11    1   11 1
    12    1   12 1
    13    2   13 1
    14    2   14 1
    15    3   15 1
    16    5   16 1
    17    5   17 1
    18    5   18 1
    19    6   19 1
    20    6   20 1
    21    6   21 1
    22    7   22 1
    23    7   23 1
    24    7   24 1
@<TRIPOS>SUBSTRUCTURE
     1 <0>         1 GROUP 0 A     ****
