@<TRIPOS>MOLECULE
AlkEthOH_c926
   27    26     1     0     0
SMALL
USER_CHARGES

@<TRIPOS>ATOM
      1 C1         -2.0258   -0.2094    1.5126 CT        1 <0>       -0.08634
      2 C2          0.0452    1.3417   -2.7857 CT        1 <0>       -0.13219
      3 C3          0.2261   -2.1770    0.7750 CT        1 <0>       -0.08952
      4 C4          1.8492   -0.3004    0.9766 CT        1 <0>       -0.08952
      5 C5         -0.5341    0.0749    1.6446 CT        1 <0>       -0.06784
      6 C6          0.0948   -0.2880   -0.8651 CT        1 <0>       -0.06256
      7 C7          0.2789    1.1790   -1.2867 CT        1 <0>        0.14071
      8 C8          0.3865   -0.6468    0.6243 CT        1 <0>       -0.04277
      9 O1         -0.6539    2.0071   -0.6035 OH        1 <0>       -0.59832
     10 H1         -2.4066    0.0492    0.5214 HC        1 <0>        0.03205
     11 H2         -2.5809    0.3879    2.2436 HC        1 <0>        0.03205
     12 H3         -2.2546   -1.2605    1.7096 HC        1 <0>        0.03205
     13 H4         -0.9552    1.0036   -3.0726 HC        1 <0>        0.04162
     14 H5          0.1647    2.3878   -3.0895 HC        1 <0>        0.04162
     15 H6          0.7823    0.7635   -3.3537 HC        1 <0>        0.04162
     16 H7         -0.7955   -2.4950    0.5385 HC        1 <0>        0.03286
     17 H8          0.9093   -2.7228    0.1160 HC        1 <0>        0.03286
     18 H9          0.4415   -2.4966    1.8013 HC        1 <0>        0.03286
     19 H10         2.0437    0.7737    0.8930 HC        1 <0>        0.03286
     20 H11         2.0854   -0.5910    2.0070 HC        1 <0>        0.03286
     21 H12         2.5510   -0.8230    0.3168 HC        1 <0>        0.03286
     22 H13        -0.2310   -0.2098    2.6614 HC        1 <0>        0.04356
     23 H14        -0.3776    1.1585    1.5901 HC        1 <0>        0.04356
     24 H15        -0.9300   -0.5982   -1.1078 HC        1 <0>        0.04804
     25 H16         0.7538   -0.9036   -1.4935 HC        1 <0>        0.04804
     26 H17         1.2875    1.5284   -1.0473 H1        1 <0>        0.03239
     27 H18        -0.4834    2.9177   -0.8932 HO        1 <0>        0.39459
@<TRIPOS>BOND
     1    1    5 1
     2    2    7 1
     3    3    8 1
     4    4    8 1
     5    5    8 1
     6    6    7 1
     7    6    8 1
     8    7    9 1
     9    1   10 1
    10    1   11 1
    11    1   12 1
    12    2   13 1
    13    2   14 1
    14    2   15 1
    15    3   16 1
    16    3   17 1
    17    3   18 1
    18    4   19 1
    19    4   20 1
    20    4   21 1
    21    5   22 1
    22    5   23 1
    23    6   24 1
    24    6   25 1
    25    7   26 1
    26    9   27 1
@<TRIPOS>SUBSTRUCTURE
     1 <0>         1 GROUP 0 A     ****
