@<TRIPOS>MOLECULE
AlkEthOH_c1105
   24    23     1     0     0
SMALL
USER_CHARGES

@<TRIPOS>ATOM
      1 C1          0.9122   -0.1406    0.6051 CT        1 <0>       -0.09231
      2 C2          4.8800   -5.0404    4.7865 CT        1 <0>       -0.09231
      3 C3          1.1048   -1.6127    0.9347 CT        1 <0>       -0.07856
      4 C4          3.7401   -4.9121    3.7874 CT        1 <0>       -0.07856
      5 C5          2.1879   -1.8102    1.9995 CT        1 <0>       -0.11041
      6 C6          3.4936   -3.4494    3.4063 CT        1 <0>       -0.11041
      7 C7          2.3763   -3.2878    2.3670 CT        1 <0>        0.13625
      8 O1          2.7076   -4.0092    1.1834 OH        1 <0>       -0.59592
      9 H1          1.8446    0.3063    0.2459 HC        1 <0>        0.03244
     10 H2          0.1556   -0.0234   -0.1772 HC        1 <0>        0.03244
     11 H3          0.5795    0.4183    1.4856 HC        1 <0>        0.03244
     12 H4          4.6732   -4.4639    5.6940 HC        1 <0>        0.03244
     13 H5          5.0363   -6.0857    5.0714 HC        1 <0>        0.03244
     14 H6          5.8107   -4.6649    4.3498 HC        1 <0>        0.03244
     15 H7          0.1548   -2.0280    1.2904 HC        1 <0>        0.04673
     16 H8          1.3714   -2.1503    0.0176 HC        1 <0>        0.04673
     17 H9          3.9853   -5.5012    2.8969 HC        1 <0>        0.04673
     18 H10         2.8307   -5.3412    4.2234 HC        1 <0>        0.04673
     19 H11         3.1327   -1.4039    1.6164 HC        1 <0>        0.04269
     20 H12         1.9224   -1.2387    2.8971 HC        1 <0>        0.04269
     21 H13         3.2357   -2.8817    4.3087 HC        1 <0>        0.04269
     22 H14         4.4271   -3.0308    3.0090 HC        1 <0>        0.04269
     23 H15         1.4345   -3.6885    2.7600 H1        1 <0>        0.07517
     24 H16         3.5297   -3.6219    0.8448 HO        1 <0>        0.39474
@<TRIPOS>BOND
     1    1    3 1
     2    2    4 1
     3    3    5 1
     4    4    6 1
     5    5    7 1
     6    6    7 1
     7    7    8 1
     8    1    9 1
     9    1   10 1
    10    1   11 1
    11    2   12 1
    12    2   13 1
    13    2   14 1
    14    3   15 1
    15    3   16 1
    16    4   17 1
    17    4   18 1
    18    5   19 1
    19    5   20 1
    20    6   21 1
    21    6   22 1
    22    7   23 1
    23    8   24 1
@<TRIPOS>SUBSTRUCTURE
     1 <0>         1 GROUP 0 A     ****
