@<TRIPOS>MOLECULE
AlkEthOH_r918
   29    29     1     0     0
SMALL
USER_CHARGES

@<TRIPOS>ATOM
      1 C1          1.0848    2.1387    0.5440 CT        1 <0>       -0.07070
      2 C2          0.3401    1.3262    1.6072 CT        1 <0>       -0.07799
      3 C3          0.2574    2.4500   -0.7080 CT        1 <0>       -0.09938
      4 C4          0.7080   -0.1606    1.6580 CT        1 <0>       -0.06836
      5 C5         -0.1781    1.2285   -1.5075 CT        1 <0>        0.13742
      6 C6          0.6852   -0.9545    0.3349 CT        1 <0>       -0.06849
      7 C7         -0.6569   -0.9011   -0.4556 CT        1 <0>        0.34837
      8 C8          1.1367   -2.3995    0.6167 CT        1 <0>       -0.09020
      9 C9         -1.8169   -1.5388    0.3194 CT        1 <0>       -0.11010
     10 O1         -1.0730    0.4418   -0.7312 OS        1 <0>       -0.45544
     11 O2         -0.4872   -1.6307   -1.6780 OH        1 <0>       -0.62978
     12 H1          1.3582    3.1038    0.9903 HC        1 <0>        0.03751
     13 H2          2.0300    1.6580    0.2676 HC        1 <0>        0.03751
     14 H3          0.5943    1.7453    2.5902 HC        1 <0>        0.04604
     15 H4         -0.7445    1.4528    1.5166 HC        1 <0>        0.04604
     16 H5         -0.6324    3.0149   -0.4027 HC        1 <0>        0.04590
     17 H6          0.8451    3.1067   -1.3602 HC        1 <0>        0.04590
     18 H7          1.7219   -0.2328    2.0758 HC        1 <0>        0.03868
     19 H8          0.0557   -0.6479    2.3936 HC        1 <0>        0.03868
     20 H9         -0.7355    1.5669   -2.3880 H1        1 <0>        0.04674
     21 H10         0.6843    0.6662   -1.8793 H1        1 <0>        0.04674
     22 H11         1.4734   -0.5408   -0.3056 HC        1 <0>        0.06375
     23 H12         0.4032   -2.8848    1.2514 HC        1 <0>        0.04018
     24 H13         2.0990   -2.3812    1.1167 HC        1 <0>        0.04018
     25 H14         1.2214   -2.9360   -0.3220 HC        1 <0>        0.04018
     26 H15        -2.7260   -1.4762   -0.2723 HC        1 <0>        0.05280
     27 H16        -1.9592   -1.0107    1.2583 HC        1 <0>        0.05280
     28 H17        -1.5878   -2.5815    0.5217 HC        1 <0>        0.05280
     29 H18        -1.3346   -1.5774   -2.1414 HO        1 <0>        0.41222
@<TRIPOS>BOND
     1    1    2 1
     2    1    3 1
     3    2    4 1
     4    3    5 1
     5    4    6 1
     6    5   10 1
     7    6    7 1
     8    6    8 1
     9    7    9 1
    10    7   10 1
    11    7   11 1
    12    1   12 1
    13    1   13 1
    14    2   14 1
    15    2   15 1
    16    3   16 1
    17    3   17 1
    18    4   18 1
    19    4   19 1
    20    5   20 1
    21    5   21 1
    22    6   22 1
    23    8   23 1
    24    8   24 1
    25    8   25 1
    26    9   26 1
    27    9   27 1
    28    9   28 1
    29   11   29 1
@<TRIPOS>SUBSTRUCTURE
     1 <0>         1 GROUP 0 A     ****
