@<TRIPOS>MOLECULE
AlkEthOH_r611
   22    22     1     0     0
SMALL
USER_CHARGES

@<TRIPOS>ATOM
      1 C1          1.6661    0.8596   -0.6089 CT        1 <0>       -0.17523
      2 C2          1.8847   -0.6159   -0.9307 CT        1 <0>        0.13168
      3 C3         -0.2398   -1.5076   -0.3787 CT        1 <0>        0.07746
      4 C4          0.1999    1.2878   -0.5494 CT        1 <0>        0.34186
      5 C5         -1.0113   -0.5242    0.5095 CT        1 <0>        0.32124
      6 C6         -1.1266   -1.0738    1.9342 CT        1 <0>       -0.11447
      7 O1          1.1524   -1.4974   -0.0830 OS        1 <0>       -0.40012
      8 O2         -0.3847    0.7532    0.6305 OS        1 <0>       -0.38484
      9 O3          0.1825    2.7142   -0.4798 OH        1 <0>       -0.57783
     10 O4         -2.3232   -0.3958   -0.0438 OH        1 <0>       -0.61435
     11 H1          2.1226    1.0674    0.3683 HC        1 <0>        0.06647
     12 H2          2.2091    1.4702   -1.3404 HC        1 <0>        0.06647
     13 H3          1.6515   -0.8261   -1.9816 H1        1 <0>        0.04958
     14 H4          2.9463   -0.8504   -0.7954 H1        1 <0>        0.04958
     15 H5         -0.6101   -2.5259   -0.2074 H1        1 <0>        0.06059
     16 H6         -0.4207   -1.3199   -1.4452 H1        1 <0>        0.06059
     17 H7         -0.3486    0.9979   -1.4529 H2        1 <0>        0.04889
     18 H8         -1.6751   -0.3687    2.5543 HC        1 <0>        0.05871
     19 H9         -0.1328   -1.2215    2.3502 HC        1 <0>        0.05871
     20 H10        -1.6546   -2.0244    1.9172 HC        1 <0>        0.05871
     21 H11         0.6225    3.0323   -1.2823 HO        1 <0>        0.40438
     22 H12        -2.7126   -1.2825   -0.0285 HO        1 <0>        0.41192
@<TRIPOS>BOND
     1    1    2 1
     2    1    4 1
     3    2    7 1
     4    3    5 1
     5    3    7 1
     6    4    8 1
     7    4    9 1
     8    5    6 1
     9    5    8 1
    10    5   10 1
    11    1   11 1
    12    1   12 1
    13    2   13 1
    14    2   14 1
    15    3   15 1
    16    3   16 1
    17    4   17 1
    18    6   18 1
    19    6   19 1
    20    6   20 1
    21    9   21 1
    22   10   22 1
@<TRIPOS>SUBSTRUCTURE
     1 <0>         1 GROUP 0 A     ****
