@<TRIPOS>MOLECULE
AlkEthOH_r1123
   24    24     1     0     0
SMALL
USER_CHARGES

@<TRIPOS>ATOM
      1 C1         -0.4866    0.9719   -1.8351 CT        1 <0>       -0.06388
      2 C2          0.1782   -0.3330   -2.2873 CT        1 <0>       -0.09478
      3 C3         -1.4257    0.8257   -0.6350 CT        1 <0>       -0.13551
      4 C4          1.1036   -0.9684   -1.2558 CT        1 <0>        0.13718
      5 C5         -0.7954    1.2414    0.6991 CT        1 <0>        0.34620
      6 C6          0.5082   -0.7594    1.0654 CT        1 <0>        0.33793
      7 C7          1.8278   -1.1626    1.7158 CT        1 <0>       -0.11431
      8 O1          0.3366   -1.4657   -0.1639 OS        1 <0>       -0.45639
      9 O2          0.4827    0.6630    0.9507 OS        1 <0>       -0.43955
     10 O3         -1.7295    0.9869    1.7460 OH        1 <0>       -0.62870
     11 H1          0.2757    1.7363   -1.6432 HC        1 <0>        0.04106
     12 H2         -1.0793    1.3389   -2.6831 HC        1 <0>        0.04106
     13 H3         -0.6070   -1.0493   -2.5592 HC        1 <0>        0.04757
     14 H4          0.7560   -0.1272   -3.1962 HC        1 <0>        0.04757
     15 H5         -2.3055    1.4643   -0.7930 HC        1 <0>        0.05881
     16 H6         -1.8321   -0.1912   -0.5755 HC        1 <0>        0.05881
     17 H7          1.5999   -1.8310   -1.7131 H1        1 <0>        0.04532
     18 H8          1.8875   -0.2683   -0.9472 H1        1 <0>        0.04532
     19 H9         -0.6375    2.3259    0.6686 H2        1 <0>        0.06104
     20 H10        -0.2961   -1.0857    1.7344 H2        1 <0>        0.09550
     21 H11         2.6613   -0.8574    1.0840 HC        1 <0>        0.05173
     22 H12         1.8606   -2.2433    1.8493 HC        1 <0>        0.05173
     23 H13         1.9245   -0.6812    2.6883 HC        1 <0>        0.05173
     24 H14        -2.5163    1.5178    1.5482 HO        1 <0>        0.41456
@<TRIPOS>BOND
     1    1    2 1
     2    1    3 1
     3    2    4 1
     4    3    5 1
     5    4    8 1
     6    5    9 1
     7    5   10 1
     8    6    7 1
     9    6    8 1
    10    6    9 1
    11    1   11 1
    12    1   12 1
    13    2   13 1
    14    2   14 1
    15    3   15 1
    16    3   16 1
    17    4   17 1
    18    4   18 1
    19    5   19 1
    20    6   20 1
    21    7   21 1
    22    7   22 1
    23    7   23 1
    24   10   24 1
@<TRIPOS>SUBSTRUCTURE
     1 <0>         1 GROUP 0 A     ****
