@<TRIPOS>MOLECULE
AlkEthOH_r970
   31    31     1     0     0
SMALL
USER_CHARGES

@<TRIPOS>ATOM
      1 C1          2.0606   -0.3760   -1.0904 CT        1 <0>       -0.11074
      2 C2          1.4321    1.0205   -1.1029 CT        1 <0>       -0.06794
      3 C3         -0.7928    0.9684    0.2328 CT        1 <0>       -0.06187
      4 C4          2.2343   -1.0069    0.2915 CT        1 <0>        0.13373
      5 C5         -0.0767   -1.4676    0.6514 CT        1 <0>        0.13411
      6 C6         -0.1176    1.0555   -1.1578 CT        1 <0>       -0.05874
      7 C7         -1.2212   -0.4433    0.7285 CT        1 <0>       -0.06347
      8 C8         -0.5425    2.3793   -1.8183 CT        1 <0>       -0.09180
      9 C9         -1.6677   -0.3005    2.2012 CT        1 <0>       -0.08768
     10 C10        -2.4206   -0.9657   -0.0828 CT        1 <0>       -0.08768
     11 O1          1.1121   -0.8638    1.1467 OS        1 <0>       -0.41740
     12 H1          1.4864   -1.0394   -1.7470 HC        1 <0>        0.04254
     13 H2          3.0583   -0.3150   -1.5445 HC        1 <0>        0.04254
     14 H3          1.8084    1.6201   -0.2652 HC        1 <0>        0.04292
     15 H4          1.8113    1.5086   -2.0112 HC        1 <0>        0.04292
     16 H5         -0.1330    1.4378    0.9752 HC        1 <0>        0.04591
     17 H6         -1.6981    1.5922    0.2322 HC        1 <0>        0.04591
     18 H7          2.4890   -2.0691    0.1974 H1        1 <0>        0.04259
     19 H8          3.0769   -0.5236    0.7983 H1        1 <0>        0.04259
     20 H9         -0.2929   -2.3418    1.2770 H1        1 <0>        0.03730
     21 H10         0.0411   -1.8458   -0.3694 H1        1 <0>        0.03730
     22 H11        -0.4769    0.2514   -1.8090 HC        1 <0>        0.04460
     23 H12        -0.2062    3.2085   -1.2051 HC        1 <0>        0.03274
     24 H13        -1.6234    2.4038   -1.9060 HC        1 <0>        0.03274
     25 H14        -0.0936    2.4470   -2.8036 HC        1 <0>        0.03274
     26 H15        -1.9718   -1.2715    2.5714 HC        1 <0>        0.03569
     27 H16        -2.4987    0.3918    2.2504 HC        1 <0>        0.03569
     28 H17        -0.8368    0.0753    2.7849 HC        1 <0>        0.03569
     29 H18        -2.6978   -1.9486    0.2826 HC        1 <0>        0.03569
     30 H19        -2.1430   -1.0291   -1.1294 HC        1 <0>        0.03569
     31 H20        -3.2552   -0.2827    0.0341 HC        1 <0>        0.03569
@<TRIPOS>BOND
     1    1    2 1
     2    1    4 1
     3    2    6 1
     4    3    6 1
     5    3    7 1
     6    4   11 1
     7    5    7 1
     8    5   11 1
     9    6    8 1
    10    7    9 1
    11    7   10 1
    12    1   12 1
    13    1   13 1
    14    2   14 1
    15    2   15 1
    16    3   16 1
    17    3   17 1
    18    4   18 1
    19    4   19 1
    20    5   20 1
    21    5   21 1
    22    6   22 1
    23    8   23 1
    24    8   24 1
    25    8   25 1
    26    9   26 1
    27    9   27 1
    28    9   28 1
    29   10   29 1
    30   10   30 1
    31   10   31 1
@<TRIPOS>SUBSTRUCTURE
     1 <0>         1 GROUP 0 A     ****
