@<TRIPOS>MOLECULE
AlkEthOH_c975
   21    20     1     0     0
SMALL
USER_CHARGES

@<TRIPOS>ATOM
      1 C1          1.0037    0.4129   -0.1581 CT        1 <0>       -0.09343
      2 C2          0.5141    3.0569   -2.9725 CT        1 <0>       -0.09258
      3 C3          1.1132    1.1043   -1.5094 CT        1 <0>       -0.07657
      4 C4         -1.2478    2.1594   -1.3848 CT        1 <0>       -0.07924
      5 C5         -1.9380    1.2329   -2.3795 CT        1 <0>        0.13229
      6 C6          0.2580    2.3801   -1.6218 CT        1 <0>       -0.06354
      7 O1         -3.3181    1.1537   -2.0417 OH        1 <0>       -0.60417
      8 H1         -0.0368    0.1333    0.0365 HC        1 <0>        0.03449
      9 H2          1.3264    1.0681    0.6563 HC        1 <0>        0.03449
     10 H3          1.6093   -0.4984   -0.1319 HC        1 <0>        0.03449
     11 H4          0.1920    2.4083   -3.7945 HC        1 <0>        0.03424
     12 H5         -0.0309    4.0019   -3.0632 HC        1 <0>        0.03424
     13 H6          1.5809    3.2616   -3.1109 HC        1 <0>        0.03424
     14 H7          2.1659    1.3695   -1.6706 HC        1 <0>        0.03734
     15 H8          0.8517    0.3933   -2.3016 HC        1 <0>        0.03734
     16 H9         -1.7606    3.1309   -1.3957 HC        1 <0>        0.05399
     17 H10        -1.4116    1.7761   -0.3696 HC        1 <0>        0.05399
     18 H11        -1.8603    1.6138   -3.4015 H1        1 <0>        0.02184
     19 H12        -1.5220    0.2226   -2.3400 H1        1 <0>        0.02184
     20 H13         0.6009    3.0787   -0.8462 HC        1 <0>        0.04692
     21 H14        -3.7296    0.5597   -2.6894 HO        1 <0>        0.39779
@<TRIPOS>BOND
     1    1    3 1
     2    2    6 1
     3    3    6 1
     4    4    5 1
     5    4    6 1
     6    5    7 1
     7    1    8 1
     8    1    9 1
     9    1   10 1
    10    2   11 1
    11    2   12 1
    12    2   13 1
    13    3   14 1
    14    3   15 1
    15    4   16 1
    16    4   17 1
    17    5   18 1
    18    5   19 1
    19    6   20 1
    20    7   21 1
@<TRIPOS>SUBSTRUCTURE
     1 <0>         1 GROUP 0 A     ****
