@<TRIPOS>MOLECULE
AlkEthOH_r907
   22    22     1     0     0
SMALL
USER_CHARGES

@<TRIPOS>ATOM
      1 C1          0.0066    0.0971    1.0918 CT        1 <0>       -0.07028
      2 C2         -0.4467   -1.2032    1.7561 CT        1 <0>       -0.07381
      3 C3         -0.8149    1.3031    1.5380 CT        1 <0>       -0.11063
      4 C4         -1.8083   -1.7276    1.3006 CT        1 <0>       -0.09820
      5 C5         -2.1399    1.4758    0.8004 CT        1 <0>        0.13437
      6 C6         -2.9425   -0.7050    1.4024 CT        1 <0>        0.14124
      7 C7         -4.2848   -1.3804    1.1376 CT        1 <0>       -0.09802
      8 O1         -2.7658    0.2727    0.3800 OS        1 <0>       -0.41973
      9 H1          1.0493    0.2710    1.3861 HC        1 <0>        0.04523
     10 H2          0.0006    0.0002   -0.0000 HC        1 <0>        0.04523
     11 H3          0.3027   -1.9777    1.5512 HC        1 <0>        0.03621
     12 H4         -0.4583   -1.0713    2.8455 HC        1 <0>        0.03621
     13 H5         -1.0066    1.2334    2.6161 HC        1 <0>        0.04195
     14 H6         -0.2274    2.2198    1.4029 HC        1 <0>        0.04195
     15 H7         -1.7127   -2.0623    0.2592 HC        1 <0>        0.04848
     16 H8         -2.0497   -2.6121    1.9028 HC        1 <0>        0.04848
     17 H9         -2.8429    2.0522    1.4131 H1        1 <0>        0.04156
     18 H10        -1.9658    2.0636   -0.1078 H1        1 <0>        0.04156
     19 H11        -2.9785   -0.2430    2.3969 H1        1 <0>        0.03977
     20 H12        -4.2764   -1.8485    0.1540 HC        1 <0>        0.04281
     21 H13        -5.0846   -0.6418    1.1729 HC        1 <0>        0.04281
     22 H14        -4.4713   -2.1430    1.8927 HC        1 <0>        0.04281
@<TRIPOS>BOND
     1    1    2 1
     2    1    3 1
     3    2    4 1
     4    3    5 1
     5    4    6 1
     6    5    8 1
     7    6    7 1
     8    6    8 1
     9    1    9 1
    10    1   10 1
    11    2   11 1
    12    2   12 1
    13    3   13 1
    14    3   14 1
    15    4   15 1
    16    4   16 1
    17    5   17 1
    18    5   18 1
    19    6   19 1
    20    7   20 1
    21    7   21 1
    22    7   22 1
@<TRIPOS>SUBSTRUCTURE
     1 <0>         1 GROUP 0 A     ****
