@<TRIPOS>MOLECULE
AlkEthOH_r400
   34    34     1     0     0
SMALL
USER_CHARGES

@<TRIPOS>ATOM
      1 C1          0.7333   -2.0971    1.2603 CT        1 <0>       -0.07067
      2 C2         -0.5661   -1.3567    1.5903 CT        1 <0>       -0.07163
      3 C3          0.8359   -2.5807   -0.1847 CT        1 <0>       -0.10206
      4 C4         -0.4515    0.1715    1.6741 CT        1 <0>       -0.06446
      5 C5          1.1633   -1.4823   -1.1830 CT        1 <0>        0.13773
      6 C6         -0.7685    1.0266    0.4027 CT        1 <0>       -0.04647
      7 C7          0.2792    0.8028   -0.7665 CT        1 <0>        0.17325
      8 C8         -0.7874    2.5053    0.8773 CT        1 <0>       -0.08882
      9 C9         -2.2119    0.7007   -0.0642 CT        1 <0>       -0.08882
     10 C10        -0.0493    1.6582   -2.0129 CT        1 <0>       -0.11033
     11 C11         1.7143    1.1948   -0.3512 CT        1 <0>       -0.11033
     12 O1          0.1089   -0.5432   -1.2422 OS        1 <0>       -0.42767
     13 H1          1.5984   -1.4740    1.5134 HC        1 <0>        0.03425
     14 H2          0.7932   -2.9811    1.9066 HC        1 <0>        0.03425
     15 H3         -1.3587   -1.6967    0.9149 HC        1 <0>        0.04387
     16 H4         -0.8732   -1.7075    2.5880 HC        1 <0>        0.04387
     17 H5          1.6265   -3.3473   -0.2284 HC        1 <0>        0.04558
     18 H6         -0.1049   -3.0807   -0.4686 HC        1 <0>        0.04558
     19 H7         -1.1705    0.4802    2.4544 HC        1 <0>        0.03412
     20 H8          0.5260    0.4654    2.0890 HC        1 <0>        0.03412
     21 H9          2.1425   -1.0533   -0.9329 H1        1 <0>        0.03885
     22 H10         1.2552   -1.9233   -2.1869 H1        1 <0>        0.03885
     23 H11        -1.0039    3.1363    0.0274 HC        1 <0>        0.03624
     24 H12         0.1823    2.7469    1.2878 HC        1 <0>        0.03624
     25 H13        -1.5532    2.6144    1.6316 HC        1 <0>        0.03624
     26 H14        -2.4326    1.2908   -0.9428 HC        1 <0>        0.03624
     27 H15        -2.8975    0.9471    0.7344 HC        1 <0>        0.03624
     28 H16        -2.2704   -0.3535   -0.2965 HC        1 <0>        0.03624
     29 H17         0.6951    1.4652   -2.7740 HC        1 <0>        0.04325
     30 H18        -0.0333    2.7030   -1.7324 HC        1 <0>        0.04325
     31 H19        -1.0316    1.3842   -2.3744 HC        1 <0>        0.04325
     32 H20         2.3794    1.0204   -1.1868 HC        1 <0>        0.04325
     33 H21         2.0112    0.5875    0.4938 HC        1 <0>        0.04325
     34 H22         1.7250    2.2422   -0.0791 HC        1 <0>        0.04325
@<TRIPOS>BOND
     1    1    2 1
     2    1    3 1
     3    2    4 1
     4    3    5 1
     5    4    6 1
     6    5   12 1
     7    6    7 1
     8    6    8 1
     9    6    9 1
    10    7   10 1
    11    7   11 1
    12    7   12 1
    13    1   13 1
    14    1   14 1
    15    2   15 1
    16    2   16 1
    17    3   17 1
    18    3   18 1
    19    4   19 1
    20    4   20 1
    21    5   21 1
    22    5   22 1
    23    8   23 1
    24    8   24 1
    25    8   25 1
    26    9   26 1
    27    9   27 1
    28    9   28 1
    29   10   29 1
    30   10   30 1
    31   10   31 1
    32   11   32 1
    33   11   33 1
    34   11   34 1
@<TRIPOS>SUBSTRUCTURE
     1 <0>         1 GROUP 0 A     ****
