@<TRIPOS>MOLECULE
AlkEthOH_r510
   14    14     1     0     0
SMALL
USER_CHARGES

@<TRIPOS>ATOM
      1 C1          0.0734    0.3196    1.2557 CT        1 <0>       -0.11927
      2 C2         -1.3633    0.5228    0.7900 CT        1 <0>        0.11835
      3 C3          0.3468   -0.1110   -0.1934 CT        1 <0>        0.32050
      4 C4          1.2821    0.7945   -0.9782 CT        1 <0>       -0.12030
      5 O1         -1.0334    0.1400   -0.5634 OS        1 <0>       -0.45419
      6 O2          0.7449   -1.4857   -0.3594 OH        1 <0>       -0.58700
      7 H1          0.5807    1.2358    1.5708 HC        1 <0>        0.07184
      8 H2          0.2065   -0.4522    2.0184 HC        1 <0>        0.07184
      9 H3         -2.0983   -0.1570    1.2299 H1        1 <0>        0.05807
     10 H4         -1.7297    1.5519    0.8386 H1        1 <0>        0.05807
     11 H5          1.4158    0.4104   -1.9908 HC        1 <0>        0.05384
     12 H6          2.2567    0.8427   -0.4898 HC        1 <0>        0.05384
     13 H7          0.8685    1.8026   -1.0368 HC        1 <0>        0.05384
     14 H8          0.8790   -1.6055   -1.3079 HO        1 <0>        0.42057
@<TRIPOS>BOND
     1    1    2 1
     2    1    3 1
     3    2    5 1
     4    3    4 1
     5    3    5 1
     6    3    6 1
     7    1    7 1
     8    1    8 1
     9    2    9 1
    10    2   10 1
    11    4   11 1
    12    4   12 1
    13    4   13 1
    14    6   14 1
@<TRIPOS>SUBSTRUCTURE
     1 <0>         1 GROUP 0 A     ****
