@<TRIPOS>MOLECULE
AlkEthOH_r262
   23    23     1     0     0
SMALL
USER_CHARGES

@<TRIPOS>ATOM
      1 C1         -0.9744    0.0657    0.3849 CT        1 <0>       -0.08786
      2 C2          1.2611    0.7729    0.2033 CT        1 <0>        0.13710
      3 C3          0.3367    0.0363    1.1670 CT        1 <0>       -0.08129
      4 C4         -0.5250   -0.0432   -1.0729 CT        1 <0>        0.33469
      5 C5          0.2229    0.7535    2.5130 CT        1 <0>       -0.08583
      6 C6          0.8268   -1.4013    1.4040 CT        1 <0>       -0.08583
      7 C7         -1.4011    0.7780   -2.0107 CT        1 <0>       -0.11432
      8 O1          0.8232    0.4525   -1.1253 OS        1 <0>       -0.45501
      9 O2         -0.5703   -1.4144   -1.4633 OH        1 <0>       -0.61417
     10 H1         -1.6658   -0.7307    0.6810 HC        1 <0>        0.06752
     11 H2         -1.4788    1.0260    0.5533 HC        1 <0>        0.06752
     12 H3          1.1834    1.8607    0.3142 H1        1 <0>        0.04963
     13 H4          2.3142    0.4954    0.3123 H1        1 <0>        0.04963
     14 H5          1.1766    0.7083    3.0348 HC        1 <0>        0.04111
     15 H6         -0.5412    0.2736    3.1210 HC        1 <0>        0.04111
     16 H7         -0.0486    1.7948    2.3522 HC        1 <0>        0.04111
     17 H8          1.7579   -1.3761    1.9613 HC        1 <0>        0.04111
     18 H9          0.9878   -1.8882    0.4473 HC        1 <0>        0.04111
     19 H10         0.0782   -1.9473    1.9695 HC        1 <0>        0.04111
     20 H11        -1.0487    0.6738   -3.0369 HC        1 <0>        0.05141
     21 H12        -1.3641    1.8304   -1.7292 HC        1 <0>        0.05141
     22 H13        -2.4334    0.4327   -1.9543 HC        1 <0>        0.05141
     23 H14        -0.2807   -1.4468   -2.3879 HO        1 <0>        0.41733
@<TRIPOS>BOND
     1    1    3 1
     2    1    4 1
     3    2    3 1
     4    2    8 1
     5    3    5 1
     6    3    6 1
     7    4    7 1
     8    4    8 1
     9    4    9 1
    10    1   10 1
    11    1   11 1
    12    2   12 1
    13    2   13 1
    14    5   14 1
    15    5   15 1
    16    5   16 1
    17    6   17 1
    18    6   18 1
    19    6   19 1
    20    7   20 1
    21    7   21 1
    22    7   22 1
    23    9   23 1
@<TRIPOS>SUBSTRUCTURE
     1 <0>         1 GROUP 0 A     ****
