@<TRIPOS>MOLECULE
AlkEthOH_c1223
   25    24     1     0     0
SMALL
USER_CHARGES

@<TRIPOS>ATOM
      1 C1          2.7550   -2.8588    2.1805 CT        1 <0>       -0.09536
      2 C2          0.6173   -0.5356   -0.7290 CT        1 <0>       -0.11762
      3 C3          4.0687    1.2252   -0.0873 CT        1 <0>       -0.12472
      4 C4          2.3485    1.7731   -1.8184 CT        1 <0>       -0.12472
      5 C5          2.4827   -2.3231    0.7911 CT        1 <0>        0.12784
      6 C6          2.1047   -0.3548   -0.4361 CT        1 <0>        0.15795
      7 C7          2.5832    1.1163   -0.4553 CT        1 <0>        0.15538
      8 O1          1.8431    1.8724    0.5075 OH        1 <0>       -0.58333
      9 O2          2.3632   -0.9116    0.8555 OS        1 <0>       -0.41048
     10 H1          3.6856   -2.4479    2.5817 HC        1 <0>        0.04465
     11 H2          1.9345   -2.6050    2.8597 HC        1 <0>        0.04465
     12 H3          2.8290   -3.9513    2.1651 HC        1 <0>        0.04465
     13 H4         -0.0080    0.0269   -0.0308 HC        1 <0>        0.04701
     14 H5          0.3297   -1.5917   -0.6915 HC        1 <0>        0.04701
     15 H6          0.3853   -0.1888   -1.7424 HC        1 <0>        0.04701
     16 H7          4.2765    0.7649    0.8850 HC        1 <0>        0.04468
     17 H8          4.3698    2.2751    0.0067 HC        1 <0>        0.04468
     18 H9          4.7041    0.7496   -0.8414 HC        1 <0>        0.04468
     19 H10         1.2966    1.7155   -2.1169 HC        1 <0>        0.04468
     20 H11         2.5880    2.8424   -1.7805 HC        1 <0>        0.04468
     21 H12         2.9620    1.3112   -2.5986 HC        1 <0>        0.04468
     22 H13         1.5507   -2.7379    0.3956 H1        1 <0>        0.02168
     23 H14         3.3037   -2.5768    0.1139 H1        1 <0>        0.02168
     24 H15         2.6878   -0.9363   -1.1604 H1        1 <0>        0.03151
     25 H16         2.1655    2.7831    0.4426 HO        1 <0>        0.39713
@<TRIPOS>BOND
     1    1    5 1
     2    2    6 1
     3    3    7 1
     4    4    7 1
     5    5    9 1
     6    6    7 1
     7    6    9 1
     8    7    8 1
     9    1   10 1
    10    1   11 1
    11    1   12 1
    12    2   13 1
    13    2   14 1
    14    2   15 1
    15    3   16 1
    16    3   17 1
    17    3   18 1
    18    4   19 1
    19    4   20 1
    20    4   21 1
    21    5   22 1
    22    5   23 1
    23    6   24 1
    24    8   25 1
@<TRIPOS>SUBSTRUCTURE
     1 <0>         1 GROUP 0 A     ****
