@<TRIPOS>MOLECULE
AlkEthOH_r406
   27    27     1     0     0
SMALL
USER_CHARGES

@<TRIPOS>ATOM
      1 C1         -2.0120    0.7998   -0.8206 CT        1 <0>       -0.08014
      2 C2         -1.9699   -0.7047   -0.5332 CT        1 <0>       -0.07056
      3 C3         -1.7571    1.7216    0.3751 CT        1 <0>       -0.11196
      4 C4         -0.8850   -1.2401    0.4007 CT        1 <0>       -0.10489
      5 C5         -0.3070    2.1885    0.5319 CT        1 <0>        0.13910
      6 C6          1.0368    0.3658   -0.2252 CT        1 <0>        0.35259
      7 C7          0.5866   -1.0945   -0.0365 CT        1 <0>        0.11813
      8 C8          0.8886   -1.9235   -1.2880 CT        1 <0>       -0.12327
      9 O1          0.5855    1.1384    0.8855 OS        1 <0>       -0.44165
     10 O2          2.4618    0.4173   -0.3135 OH        1 <0>       -0.60355
     11 O3          1.3719   -1.6686    1.0239 OH        1 <0>       -0.59407
     12 H1         -1.3507    1.0516   -1.6556 HC        1 <0>        0.03711
     13 H2         -3.0220    1.0146   -1.1965 HC        1 <0>        0.03711
     14 H3         -2.9349   -0.9762   -0.0833 HC        1 <0>        0.04199
     15 H4         -1.9357   -1.2426   -1.4882 HC        1 <0>        0.04199
     16 H5         -2.3696    2.6222    0.2399 HC        1 <0>        0.05261
     17 H6         -2.1031    1.2446    1.2989 HC        1 <0>        0.05261
     18 H7         -1.0152   -0.8082    1.4017 HC        1 <0>        0.05332
     19 H8         -1.0856   -2.3100    0.5588 HC        1 <0>        0.05332
     20 H9          0.0475    2.7183   -0.3605 H1        1 <0>        0.04898
     21 H10        -0.2732    2.9110    1.3551 H1        1 <0>        0.04898
     22 H11         0.6600    0.7557   -1.1756 H2        1 <0>        0.07675
     23 H12         1.9319   -1.7964   -1.5655 HC        1 <0>        0.04724
     24 H13         0.2546   -1.5914   -2.1060 HC        1 <0>        0.04724
     25 H14         0.6947   -2.9735   -1.0843 HC        1 <0>        0.04724
     26 H15         2.6942    1.3504   -0.4309 HO        1 <0>        0.43318
     27 H16         1.0896   -2.5900    1.0899 HO        1 <0>        0.40060
@<TRIPOS>BOND
     1    1    2 1
     2    1    3 1
     3    2    4 1
     4    3    5 1
     5    4    7 1
     6    5    9 1
     7    6    7 1
     8    6    9 1
     9    6   10 1
    10    7    8 1
    11    7   11 1
    12    1   12 1
    13    1   13 1
    14    2   14 1
    15    2   15 1
    16    3   16 1
    17    3   17 1
    18    4   18 1
    19    4   19 1
    20    5   20 1
    21    5   21 1
    22    6   22 1
    23    8   23 1
    24    8   24 1
    25    8   25 1
    26   10   26 1
    27   11   27 1
@<TRIPOS>SUBSTRUCTURE
     1 <0>         1 GROUP 0 A     ****
