@<TRIPOS>MOLECULE
AlkEthOH_r522
   23    23     1     0     0
SMALL
USER_CHARGES

@<TRIPOS>ATOM
      1 C1          0.0170    0.8291   -1.4037 CT        1 <0>       -0.10683
      2 C2         -1.3190    1.2029   -0.7855 CT        1 <0>        0.13348
      3 C3          0.7741    0.1949   -0.2368 CT        1 <0>       -0.05515
      4 C4         -0.3926   -0.5387    0.4674 CT        1 <0>        0.33589
      5 C5          1.8908   -0.7318   -0.7297 CT        1 <0>       -0.08376
      6 C6          1.4008    1.3045    0.6321 CT        1 <0>       -0.08376
      7 C7         -0.1623   -0.8839    1.9348 CT        1 <0>       -0.10673
      8 O1         -1.5095    0.3663    0.3661 OS        1 <0>       -0.45754
      9 O2         -0.6993   -1.7433   -0.2447 OH        1 <0>       -0.61856
     10 H1         -0.1495    0.0974   -2.2045 HC        1 <0>        0.06077
     11 H2          0.5207    1.6906   -1.8537 HC        1 <0>        0.06077
     12 H3         -1.3298    2.2445   -0.4490 H1        1 <0>        0.04761
     13 H4         -2.1496    1.0576   -1.4825 H1        1 <0>        0.04761
     14 H5          2.4073   -1.1647    0.1232 HC        1 <0>        0.04224
     15 H6          2.5974   -0.1633   -1.3288 HC        1 <0>        0.04224
     16 H7          1.4629   -1.5274   -1.3343 HC        1 <0>        0.04224
     17 H8          1.9357    0.8485    1.4570 HC        1 <0>        0.04224
     18 H9          0.6127    1.9437    1.0126 HC        1 <0>        0.04224
     19 H10         2.0855    1.8852    0.0251 HC        1 <0>        0.04224
     20 H11        -1.0361   -1.3953    2.3376 HC        1 <0>        0.05302
     21 H12         0.0113    0.0265    2.5077 HC        1 <0>        0.05302
     22 H13         0.7059   -1.5351    2.0313 HC        1 <0>        0.05302
     23 H14        -1.4298   -2.1600    0.2340 HO        1 <0>        0.41370
@<TRIPOS>BOND
     1    1    2 1
     2    1    3 1
     3    2    8 1
     4    3    4 1
     5    3    5 1
     6    3    6 1
     7    4    7 1
     8    4    8 1
     9    4    9 1
    10    1   10 1
    11    1   11 1
    12    2   12 1
    13    2   13 1
    14    5   14 1
    15    5   15 1
    16    5   16 1
    17    6   17 1
    18    6   18 1
    19    6   19 1
    20    7   20 1
    21    7   21 1
    22    7   22 1
    23    9   23 1
@<TRIPOS>SUBSTRUCTURE
     1 <0>         1 GROUP 0 A     ****
