@<TRIPOS>MOLECULE
AlkEthOH_r61
   21    21     1     0     0
SMALL
USER_CHARGES

@<TRIPOS>ATOM
      1 C1          0.4350    0.2157   -1.6800 CT        1 <0>       -0.07274
      2 C2         -1.0218    0.0736   -1.2489 CT        1 <0>       -0.07274
      3 C3          1.4969    0.1624   -0.5856 CT        1 <0>       -0.07274
      4 C4         -1.2737   -0.9347   -0.1327 CT        1 <0>       -0.07274
      5 C5          1.1219    0.8596    0.7181 CT        1 <0>       -0.07274
      6 C6         -1.0995   -0.3310    1.2598 CT        1 <0>       -0.07274
      7 C7          0.3412   -0.0457    1.6693 CT        1 <0>       -0.07274
      8 H1          0.6672   -0.5683   -2.4123 HC        1 <0>        0.03637
      9 H2          0.5333    1.1637   -2.2245 HC        1 <0>        0.03637
     10 H3         -1.4153    1.0561   -0.9597 HC        1 <0>        0.03637
     11 H4         -1.5999   -0.2274   -2.1322 HC        1 <0>        0.03637
     12 H5          1.7643   -0.8829   -0.3859 HC        1 <0>        0.03637
     13 H6          2.4069    0.6282   -0.9849 HC        1 <0>        0.03637
     14 H7         -2.3158   -1.2692   -0.2140 HC        1 <0>        0.03637
     15 H8         -0.6503   -1.8278   -0.2554 HC        1 <0>        0.03637
     16 H9          2.0535    1.1389    1.2268 HC        1 <0>        0.03637
     17 H10         0.5793    1.7926    0.5284 HC        1 <0>        0.03637
     18 H11        -1.6892    0.5909    1.3382 HC        1 <0>        0.03637
     19 H12        -1.5263   -1.0272    1.9928 HC        1 <0>        0.03637
     20 H13         0.8773   -0.9944    1.7986 HC        1 <0>        0.03637
     21 H14         0.3226    0.4285    2.6589 HC        1 <0>        0.03637
@<TRIPOS>BOND
     1    1    2 1
     2    1    3 1
     3    2    4 1
     4    3    5 1
     5    4    6 1
     6    5    7 1
     7    6    7 1
     8    1    8 1
     9    1    9 1
    10    2   10 1
    11    2   11 1
    12    3   12 1
    13    3   13 1
    14    4   14 1
    15    4   15 1
    16    5   16 1
    17    5   17 1
    18    6   18 1
    19    6   19 1
    20    7   20 1
    21    7   21 1
@<TRIPOS>SUBSTRUCTURE
     1 <0>         1 GROUP 0 A     ****
