@<TRIPOS>MOLECULE
AlkEthOH_c260
   25    24     1     0     0
SMALL
USER_CHARGES

@<TRIPOS>ATOM
      1 C1         -0.5257    1.3588   -2.2843 CT        1 <0>       -0.08826
      2 C2         -0.8750    2.0312    0.0913 CT        1 <0>       -0.08826
      3 C3          1.6947   -1.6423    1.1528 CT        1 <0>       -0.12328
      4 C4         -0.7988   -1.5490    1.2121 CT        1 <0>       -0.12328
      5 C5         -0.6925    0.8380   -0.8473 CT        1 <0>       -0.08681
      6 C6          0.4973   -0.0854   -0.4655 CT        1 <0>        0.15276
      7 C7          0.4712   -0.7352    0.9465 CT        1 <0>        0.12257
      8 O1          0.6013   -1.1180   -1.4531 OH        1 <0>       -0.59569
      9 O2          0.5409    0.2821    1.9486 OH        1 <0>       -0.59559
     10 H1          0.3819    1.9643   -2.3818 HC        1 <0>        0.03936
     11 H2         -1.3797    1.9805   -2.5744 HC        1 <0>        0.03936
     12 H3         -0.4654    0.5357   -3.0036 HC        1 <0>        0.03936
     13 H4          0.0288    2.6502    0.1160 HC        1 <0>        0.03936
     14 H5         -1.6892    2.6814   -0.2398 HC        1 <0>        0.03936
     15 H6         -1.0843    1.7029    1.1149 HC        1 <0>        0.03936
     16 H7          2.6360   -1.1124    0.9759 HC        1 <0>        0.04486
     17 H8          1.6564   -2.5065    0.4792 HC        1 <0>        0.04486
     18 H9          1.7104   -2.0473    2.1712 HC        1 <0>        0.04486
     19 H10        -1.6915   -0.9275    1.0726 HC        1 <0>        0.04486
     20 H11        -0.8226   -1.9538    2.2284 HC        1 <0>        0.04486
     21 H12        -0.9008   -2.3770    0.5031 HC        1 <0>        0.04486
     22 H13        -1.6177    0.2477   -0.8414 HC        1 <0>        0.03931
     23 H14         1.4158    0.5110   -0.5455 H1        1 <0>        0.08575
     24 H15        -0.2406   -1.5945   -1.4334 HO        1 <0>        0.39581
     25 H16         0.5193   -0.1753    2.8020 HO        1 <0>        0.39965
@<TRIPOS>BOND
     1    1    5 1
     2    2    5 1
     3    3    7 1
     4    4    7 1
     5    5    6 1
     6    6    7 1
     7    6    8 1
     8    7    9 1
     9    1   10 1
    10    1   11 1
    11    1   12 1
    12    2   13 1
    13    2   14 1
    14    2   15 1
    15    3   16 1
    16    3   17 1
    17    3   18 1
    18    4   19 1
    19    4   20 1
    20    4   21 1
    21    5   22 1
    22    6   23 1
    23    8   24 1
    24    9   25 1
@<TRIPOS>SUBSTRUCTURE
     1 <0>         1 GROUP 0 A     ****
