@<TRIPOS>MOLECULE
AlkEthOH_c136
   20    19     1     0     0
SMALL
USER_CHARGES

@<TRIPOS>ATOM
      1 C1          0.7994    0.6348   -0.3974 CT        1 <0>       -0.12111
      2 C2          1.8119    1.6741   -2.4396 CT        1 <0>       -0.12111
      3 C3          1.0155   -0.8669   -4.0234 CT        1 <0>        0.10067
      4 C4          1.0822   -0.7677   -2.4975 CT        1 <0>        0.15886
      5 C5          0.7976    0.6437   -1.9318 CT        1 <0>        0.11330
      6 O1          1.3286   -2.1974   -4.4290 OH        1 <0>       -0.59089
      7 O2          0.1276   -1.6965   -1.9682 OH        1 <0>       -0.58202
      8 O3         -0.5038    1.0521   -2.3637 OH        1 <0>       -0.61254
      9 H1          0.0838   -0.0924   -0.0002 HC        1 <0>        0.04704
     10 H2          0.5582    1.6231    0.0088 HC        1 <0>        0.04704
     11 H3          1.7943    0.3857   -0.0099 HC        1 <0>        0.04704
     12 H4          1.8269    1.6971   -3.5358 HC        1 <0>        0.04704
     13 H5          1.5760    2.6809   -2.0800 HC        1 <0>        0.04704
     14 H6          2.8322    1.4195   -2.1353 HC        1 <0>        0.04704
     15 H7          1.7401   -0.2076   -4.5066 H1        1 <0>        0.03423
     16 H8          0.0161   -0.6332   -4.4042 H1        1 <0>        0.03423
     17 H9          2.0636   -1.1162   -2.1540 H1        1 <0>        0.09042
     18 H10         1.2737   -2.2106   -5.3970 HO        1 <0>        0.39806
     19 H11        -0.7335   -1.4222   -2.3137 HO        1 <0>        0.41010
     20 H12        -0.6449    1.9375   -1.9982 HO        1 <0>        0.40556
@<TRIPOS>BOND
     1    1    5 1
     2    2    5 1
     3    3    4 1
     4    3    6 1
     5    4    5 1
     6    4    7 1
     7    5    8 1
     8    1    9 1
     9    1   10 1
    10    1   11 1
    11    2   12 1
    12    2   13 1
    13    2   14 1
    14    3   15 1
    15    3   16 1
    16    4   17 1
    17    6   18 1
    18    7   19 1
    19    8   20 1
@<TRIPOS>SUBSTRUCTURE
     1 <0>         1 GROUP 0 A     ****
