@<TRIPOS>MOLECULE
AlkEthOH_c347
   26    25     1     0     0
SMALL
USER_CHARGES

@<TRIPOS>ATOM
      1 C1          0.8089   -2.3715    0.5100 CT        1 <0>       -0.08734
      2 C2          1.3122   -1.6707   -1.8418 CT        1 <0>       -0.08734
      3 C3          0.6899    2.6024    0.7327 CT        1 <0>       -0.13343
      4 C4         -1.4949    1.5298    1.2790 CT        1 <0>       -0.13343
      5 C5          0.2021   -1.8787   -0.8054 CT        1 <0>       -0.08847
      6 C6         -0.6385   -0.6045   -0.5830 CT        1 <0>        0.34511
      7 C7         -0.4149    1.6828    0.2067 CT        1 <0>        0.35200
      8 O1         -1.2256   -0.2410   -1.8306 OH        1 <0>       -0.59080
      9 O2         -1.0073    2.2879   -0.9413 OH        1 <0>       -0.58416
     10 O3          0.2100    0.4244   -0.0741 OS        1 <0>       -0.40178
     11 H1          1.4846   -1.6289    0.9474 HC        1 <0>        0.04094
     12 H2          1.3796   -3.2928    0.3515 HC        1 <0>        0.04094
     13 H3          0.0237   -2.5884    1.2418 HC        1 <0>        0.04094
     14 H4          2.0106   -0.8963   -1.5066 HC        1 <0>        0.04094
     15 H5          0.9074   -1.3583   -2.8102 HC        1 <0>        0.04094
     16 H6          1.8878   -2.5894   -1.9943 HC        1 <0>        0.04094
     17 H7          1.4840    2.7366   -0.0098 HC        1 <0>        0.05074
     18 H8          1.1249    2.2164    1.6607 HC        1 <0>        0.05074
     19 H9          0.2866    3.5978    0.9536 HC        1 <0>        0.05074
     20 H10        -2.3060    0.8770    0.9404 HC        1 <0>        0.05074
     21 H11        -1.9594    2.4948    1.5105 HC        1 <0>        0.05074
     22 H12        -1.0851    1.0992    2.1987 HC        1 <0>        0.05074
     23 H13        -0.4626   -2.6613   -1.1943 HC        1 <0>        0.03874
     24 H14        -1.4431   -0.8423    0.1206 H2        1 <0>        0.02340
     25 H15        -1.7815   -0.9873   -2.1121 HO        1 <0>        0.39966
     26 H16        -1.3786    3.1463   -0.6776 HO        1 <0>        0.39776
@<TRIPOS>BOND
     1    1    5 1
     2    2    5 1
     3    3    7 1
     4    4    7 1
     5    5    6 1
     6    6    8 1
     7    6   10 1
     8    7    9 1
     9    7   10 1
    10    1   11 1
    11    1   12 1
    12    1   13 1
    13    2   14 1
    14    2   15 1
    15    2   16 1
    16    3   17 1
    17    3   18 1
    18    3   19 1
    19    4   20 1
    20    4   21 1
    21    4   22 1
    22    5   23 1
    23    6   24 1
    24    8   25 1
    25    9   26 1
@<TRIPOS>SUBSTRUCTURE
     1 <0>         1 GROUP 0 A     ****
