@<TRIPOS>MOLECULE
AlkEthOH_r1043
   20    20     1     0     0
SMALL
USER_CHARGES

@<TRIPOS>ATOM
      1 C1         -0.9111    0.7336    0.8808 CT        1 <0>       -0.10422
      2 C2         -0.9200   -0.7552    1.2131 CT        1 <0>        0.13915
      3 C3          0.7978    0.3841   -1.0039 CT        1 <0>        0.13774
      4 C4          0.2182   -1.8845   -0.5489 CT        1 <0>        0.32928
      5 C5          0.3823    1.2279    0.2074 CT        1 <0>       -0.09242
      6 C6          0.2266    2.6948   -0.1968 CT        1 <0>       -0.08972
      7 O1         -1.0354   -1.5060    0.0103 OS        1 <0>       -0.45832
      8 O2          1.2416   -0.8946   -0.5620 OS        1 <0>       -0.45273
      9 H1         -1.7609    0.9510    0.2205 HC        1 <0>        0.04990
     10 H2         -1.0664    1.3025    1.8058 HC        1 <0>        0.04990
     11 H3         -0.0475   -1.0598    1.8028 H1        1 <0>        0.05186
     12 H4         -1.8118   -0.9750    1.8094 H1        1 <0>        0.05186
     13 H5         -0.0012    0.2984   -1.7506 H1        1 <0>        0.05152
     14 H6          1.6551    0.8549   -1.4978 H1        1 <0>        0.05152
     15 H7          0.5986   -2.7489    0.0057 H2        1 <0>        0.05744
     16 H8          0.0390   -2.2158   -1.5773 H2        1 <0>        0.05744
     17 H9          1.1831    1.1624    0.9563 HC        1 <0>        0.06087
     18 H10        -0.5625    2.7888   -0.9400 HC        1 <0>        0.03631
     19 H11         1.1608    3.0604   -0.6179 HC        1 <0>        0.03631
     20 H12        -0.0306    3.2906    0.6765 HC        1 <0>        0.03631
@<TRIPOS>BOND
     1    1    2 1
     2    1    5 1
     3    2    7 1
     4    3    5 1
     5    3    8 1
     6    4    7 1
     7    4    8 1
     8    5    6 1
     9    1    9 1
    10    1   10 1
    11    2   11 1
    12    2   12 1
    13    3   13 1
    14    3   14 1
    15    4   15 1
    16    4   16 1
    17    5   17 1
    18    6   18 1
    19    6   19 1
    20    6   20 1
@<TRIPOS>SUBSTRUCTURE
     1 <0>         1 GROUP 0 A     ****
