@<TRIPOS>MOLECULE
AlkEthOH_r748
   22    22     1     0     0
SMALL
USER_CHARGES

@<TRIPOS>ATOM
      1 C1          0.7981   -1.1885    0.6175 CT        1 <0>       -0.10868
      2 C2         -0.4334   -1.0830    1.4986 CT        1 <0>        0.12539
      3 C3         -0.2010    0.9068    0.3050 CT        1 <0>        0.14442
      4 C4          0.5100   -0.1918   -0.5017 CT        1 <0>       -0.08056
      5 C5         -1.0868    1.8618   -0.4772 CT        1 <0>       -0.09201
      6 C6          1.7942    0.3134   -1.1622 CT        1 <0>       -0.08240
      7 C7         -0.3865   -0.8402   -1.5716 CT        1 <0>       -0.08240
      8 O1         -0.9947    0.2215    1.2915 OS        1 <0>       -0.42871
      9 H1          1.6777   -0.8752    1.1945 HC        1 <0>        0.05411
     10 H2          0.9796   -2.2122    0.2758 HC        1 <0>        0.05411
     11 H3         -1.1912   -1.8227    1.2212 H1        1 <0>        0.04562
     12 H4         -0.1956   -1.2143    2.5583 H1        1 <0>        0.04562
     13 H5          0.5373    1.4994    0.8618 H1        1 <0>        0.03934
     14 H6         -1.8344    1.3040   -1.0440 HC        1 <0>        0.04481
     15 H7         -0.4855    2.4490   -1.1736 HC        1 <0>        0.04481
     16 H8         -1.5999    2.5434    0.2037 HC        1 <0>        0.04481
     17 H9          1.5469    1.0193   -1.9520 HC        1 <0>        0.03862
     18 H10         2.3411   -0.5248   -1.5885 HC        1 <0>        0.03862
     19 H11         2.4174    0.8086   -0.4205 HC        1 <0>        0.03862
     20 H12        -0.5816   -0.1197   -2.3588 HC        1 <0>        0.03862
     21 H13        -1.3221   -1.1465   -1.1159 HC        1 <0>        0.03862
     22 H14         0.1199   -1.7059   -1.9851 HC        1 <0>        0.03862
@<TRIPOS>BOND
     1    1    2 1
     2    1    4 1
     3    2    8 1
     4    3    4 1
     5    3    5 1
     6    3    8 1
     7    4    6 1
     8    4    7 1
     9    1    9 1
    10    1   10 1
    11    2   11 1
    12    2   12 1
    13    3   13 1
    14    5   14 1
    15    5   15 1
    16    5   16 1
    17    6   17 1
    18    6   18 1
    19    6   19 1
    20    7   20 1
    21    7   21 1
    22    7   22 1
@<TRIPOS>SUBSTRUCTURE
     1 <0>         1 GROUP 0 A     ****
