@<TRIPOS>MOLECULE
AlkEthOH_r715
   26    26     1     0     0
SMALL
USER_CHARGES

@<TRIPOS>ATOM
      1 C1          0.1840    2.5817    0.4162 CT        1 <0>       -0.09848
      2 C2          0.4472    2.1142   -1.0164 CT        1 <0>        0.12475
      3 C3         -0.3416    1.4719    1.3282 CT        1 <0>        0.14629
      4 C4         -0.3705    0.1595   -2.1491 CT        1 <0>        0.13244
      5 C5          0.2522   -0.8850   -1.2198 CT        1 <0>        0.31097
      6 C6          0.0472   -0.9134    1.1734 CT        1 <0>        0.53263
      7 C7         -0.9872   -1.2383    2.2570 CT        1 <0>       -0.11106
      8 O1         -0.6805    1.3816   -1.4851 OS        1 <0>       -0.41441
      9 O2          0.5946    0.3978    1.3818 OS        1 <0>       -0.49556
     10 O3         -0.6093   -1.0737   -0.0955 OS        1 <0>       -0.44330
     11 O4          0.3905   -2.0985   -1.9537 OH        1 <0>       -0.59516
     12 O5          1.0735   -1.8978    1.3632 OH        1 <0>       -0.62344
     13 H1          1.1123    2.9977    0.8239 HC        1 <0>        0.05687
     14 H2         -0.5606    3.3865    0.4002 HC        1 <0>        0.05687
     15 H3          0.5814    2.9839   -1.6686 H1        1 <0>        0.04081
     16 H4          1.3754    1.5366   -1.0611 H1        1 <0>        0.04081
     17 H5         -0.4621    1.8608    2.3448 H1        1 <0>        0.05104
     18 H6         -1.3288    1.1504    0.9789 H1        1 <0>        0.05104
     19 H7          0.2754    0.3547   -3.0135 H1        1 <0>        0.06854
     20 H8         -1.3151   -0.2279   -2.5483 H1        1 <0>        0.06854
     21 H9          1.2539   -0.5641   -0.9188 H2        1 <0>        0.05966
     22 H10        -1.3924   -2.2324    2.0865 HC        1 <0>        0.06323
     23 H11        -1.7925   -0.5093    2.2210 HC        1 <0>        0.06323
     24 H12        -0.5127   -1.2045    3.2343 HC        1 <0>        0.06323
     25 H13         0.9682   -1.9015   -2.7074 HO        1 <0>        0.41663
     26 H14         1.4038   -1.7687    2.2629 HO        1 <0>        0.43383
@<TRIPOS>BOND
     1    1    2 1
     2    1    3 1
     3    2    8 1
     4    3    9 1
     5    4    5 1
     6    4    8 1
     7    5   10 1
     8    5   11 1
     9    6    7 1
    10    6    9 1
    11    6   10 1
    12    6   12 1
    13    1   13 1
    14    1   14 1
    15    2   15 1
    16    2   16 1
    17    3   17 1
    18    3   18 1
    19    4   19 1
    20    4   20 1
    21    5   21 1
    22    7   22 1
    23    7   23 1
    24    7   24 1
    25   11   25 1
    26   12   26 1
@<TRIPOS>SUBSTRUCTURE
     1 <0>         1 GROUP 0 A     ****
