@<TRIPOS>MOLECULE
AlkEthOH_r355
   31    31     1     0     0
SMALL
USER_CHARGES

@<TRIPOS>ATOM
      1 C1          1.5316   -0.5541   -1.8319 CT        1 <0>       -0.07085
      2 C2          1.0701   -1.7701   -1.0408 CT        1 <0>       -0.07014
      3 C3          0.4836    0.5215   -2.0668 CT        1 <0>       -0.07186
      4 C4         -0.1284   -1.6181   -0.1057 CT        1 <0>       -0.07029
      5 C5          0.2987    1.4398   -0.8587 CT        1 <0>       -0.10239
      6 C6         -0.1247   -0.4532    0.9300 CT        1 <0>       -0.02347
      7 C7         -0.5984    0.9065    0.2809 CT        1 <0>        0.16359
      8 C8         -1.1299   -0.8831    2.0393 CT        1 <0>       -0.08901
      9 C9          1.2548   -0.3337    1.6098 CT        1 <0>       -0.08901
     10 C10        -0.7457    2.0438    1.3150 CT        1 <0>       -0.12387
     11 O1         -1.9117    0.7007   -0.2712 OH        1 <0>       -0.60071
     12 H1          2.4109   -0.1124   -1.3474 HC        1 <0>        0.03406
     13 H2          1.8932   -0.9080   -2.8064 HC        1 <0>        0.03406
     14 H3          0.8165   -2.5628   -1.7578 HC        1 <0>        0.03377
     15 H4          1.9261   -2.1640   -0.4780 HC        1 <0>        0.03377
     16 H5          0.8407    1.1465   -2.8960 HC        1 <0>        0.04488
     17 H6         -0.4656    0.0901   -2.4022 HC        1 <0>        0.04488
     18 H7         -1.0450   -1.5769   -0.7077 HC        1 <0>        0.04848
     19 H8         -0.2005   -2.5731    0.4347 HC        1 <0>        0.04848
     20 H9          1.2766    1.7463   -0.4682 HC        1 <0>        0.04122
     21 H10        -0.1673    2.3557   -1.2505 HC        1 <0>        0.04122
     22 H11        -1.1641   -0.1049    2.7859 HC        1 <0>        0.03712
     23 H12        -0.7823   -1.8086    2.4715 HC        1 <0>        0.03712
     24 H13        -2.0994   -1.0165    1.5851 HC        1 <0>        0.03712
     25 H14         1.2276    0.4818    2.3225 HC        1 <0>        0.03712
     26 H15         2.0052   -0.1380    0.8533 HC        1 <0>        0.03712
     27 H16         1.4784   -1.2629    2.1202 HC        1 <0>        0.03712
     28 H17        -1.3714    1.6998    2.1292 HC        1 <0>        0.04151
     29 H18        -1.2021    2.8997    0.8335 HC        1 <0>        0.04151
     30 H19         0.2358    2.3085    1.6885 HC        1 <0>        0.04151
     31 H20        -2.2005    1.5653   -0.5905 HO        1 <0>        0.39594
@<TRIPOS>BOND
     1    1    2 1
     2    1    3 1
     3    2    4 1
     4    3    5 1
     5    4    6 1
     6    5    7 1
     7    6    7 1
     8    6    8 1
     9    6    9 1
    10    7   10 1
    11    7   11 1
    12    1   12 1
    13    1   13 1
    14    2   14 1
    15    2   15 1
    16    3   16 1
    17    3   17 1
    18    4   18 1
    19    4   19 1
    20    5   20 1
    21    5   21 1
    22    8   22 1
    23    8   23 1
    24    8   24 1
    25    9   25 1
    26    9   26 1
    27    9   27 1
    28   10   28 1
    29   10   29 1
    30   10   30 1
    31   11   31 1
@<TRIPOS>SUBSTRUCTURE
     1 <0>         1 GROUP 0 A     ****
