@<TRIPOS>MOLECULE
AlkEthOH_r952
   23    23     1     0     0
SMALL
USER_CHARGES

@<TRIPOS>ATOM
      1 C1          0.2546   -0.2688   -1.7372 CT        1 <0>       -0.05500
      2 C2         -1.1537    0.2009   -1.3559 CT        1 <0>       -0.10781
      3 C3          1.2154   -0.6445   -0.6000 CT        1 <0>       -0.10279
      4 C4         -1.9302   -0.7142   -0.4058 CT        1 <0>        0.14358
      5 C5         -0.7618   -0.1667    1.6193 CT        1 <0>        0.32492
      6 C6          1.3416    0.3554    0.5638 CT        1 <0>        0.15375
      7 C7          2.1323    1.5895    0.1359 CT        1 <0>       -0.09322
      8 O1         -1.1898   -1.1811    0.7155 OS        1 <0>       -0.45042
      9 O2          0.0915    0.8295    1.0644 OS        1 <0>       -0.44963
     10 H1          0.1626   -1.1388   -2.3999 HC        1 <0>        0.03331
     11 H2          0.7198    0.5189   -2.3430 HC        1 <0>        0.03331
     12 H3         -1.0939    1.2094   -0.9318 HC        1 <0>        0.05131
     13 H4         -1.7423    0.3208   -2.2746 HC        1 <0>        0.05131
     14 H5          0.9198   -1.6227   -0.2037 HC        1 <0>        0.05038
     15 H6          2.2103   -0.8170   -1.0318 HC        1 <0>        0.05038
     16 H7         -2.8425   -0.2158   -0.0582 H1        1 <0>        0.04258
     17 H8         -2.2474   -1.6048   -0.9596 H1        1 <0>        0.04258
     18 H9         -1.6442    0.3362    2.0293 H2        1 <0>        0.05959
     19 H10        -0.2479   -0.6519    2.4560 H2        1 <0>        0.05959
     20 H11         1.8861   -0.1239    1.3871 H1        1 <0>        0.03079
     21 H12         1.6190    2.0917   -0.6826 HC        1 <0>        0.04383
     22 H13         3.1270    1.2946   -0.1948 HC        1 <0>        0.04383
     23 H14         2.2249    2.2780    0.9745 HC        1 <0>        0.04383
@<TRIPOS>BOND
     1    1    2 1
     2    1    3 1
     3    2    4 1
     4    3    6 1
     5    4    8 1
     6    5    8 1
     7    5    9 1
     8    6    7 1
     9    6    9 1
    10    1   10 1
    11    1   11 1
    12    2   12 1
    13    2   13 1
    14    3   14 1
    15    3   15 1
    16    4   16 1
    17    4   17 1
    18    5   18 1
    19    5   19 1
    20    6   20 1
    21    7   21 1
    22    7   22 1
    23    7   23 1
@<TRIPOS>SUBSTRUCTURE
     1 <0>         1 GROUP 0 A     ****
