@<TRIPOS>MOLECULE
AlkEthOH_r280
   22    22     1     0     0
SMALL
USER_CHARGES

@<TRIPOS>ATOM
      1 C1         -1.1244   -0.3920    0.2058 CT        1 <0>       -0.19348
      2 C2          1.5659   -0.9465   -0.6021 CT        1 <0>        0.09861
      3 C3          1.8897    0.1590    0.3883 CT        1 <0>        0.10611
      4 C4         -0.7228   -0.6246   -1.2585 CT        1 <0>        0.34492
      5 C5         -0.4060    0.7651    0.9152 CT        1 <0>        0.35633
      6 C6         -1.1909    1.1373    2.1787 CT        1 <0>       -0.11991
      7 O1          0.6530   -0.4467   -1.5693 OS        1 <0>       -0.39190
      8 O2          0.8828    0.3408    1.3767 OS        1 <0>       -0.41570
      9 O3         -1.1918   -1.8995   -1.6979 OH        1 <0>       -0.61911
     10 O4         -0.3555    1.9071    0.0629 OH        1 <0>       -0.60635
     11 H1         -2.2104   -0.2249    0.2082 HC        1 <0>        0.06771
     12 H2         -0.9718   -1.3176    0.7779 HC        1 <0>        0.06771
     13 H3          2.4790   -1.2105   -1.1453 H1        1 <0>        0.06244
     14 H4          1.1862   -1.8538   -0.1199 H1        1 <0>        0.06244
     15 H5          2.8029   -0.1083    0.9299 H1        1 <0>        0.06908
     16 H6          2.0751    1.1123   -0.1191 H1        1 <0>        0.06908
     17 H7         -1.2564    0.1322   -1.8753 H2        1 <0>        0.06337
     18 H8         -0.6907    1.9561    2.6890 HC        1 <0>        0.05427
     19 H9         -1.2427    0.2769    2.8406 HC        1 <0>        0.05427
     20 H10        -2.1969    1.4433    1.9042 HC        1 <0>        0.05427
     21 H11        -2.1562   -1.8827   -1.6053 HO        1 <0>        0.40501
     22 H12        -1.2746    2.1450   -0.1338 HO        1 <0>        0.41083
@<TRIPOS>BOND
     1    1    4 1
     2    1    5 1
     3    2    3 1
     4    2    7 1
     5    3    8 1
     6    4    7 1
     7    4    9 1
     8    5    6 1
     9    5    8 1
    10    5   10 1
    11    1   11 1
    12    1   12 1
    13    2   13 1
    14    2   14 1
    15    3   15 1
    16    3   16 1
    17    4   17 1
    18    6   18 1
    19    6   19 1
    20    6   20 1
    21    9   21 1
    22   10   22 1
@<TRIPOS>SUBSTRUCTURE
     1 <0>         1 GROUP 0 A     ****
