@<TRIPOS>MOLECULE
AlkEthOH_r401
   32    32     1     0     0
SMALL
USER_CHARGES

@<TRIPOS>ATOM
      1 C1          1.1323    2.0954   -1.2000 CT        1 <0>       -0.06351
      2 C2          1.7793    1.1576   -0.1761 CT        1 <0>       -0.07299
      3 C3         -0.3194    1.8163   -1.5849 CT        1 <0>       -0.11235
      4 C4          0.9367    0.8616    1.0754 CT        1 <0>       -0.06134
      5 C5         -0.6006    0.4028   -2.0901 CT        1 <0>        0.16042
      6 C6          0.2755   -0.5575    1.1713 CT        1 <0>       -0.03517
      7 C7         -0.7970   -0.7835    0.0397 CT        1 <0>        0.35848
      8 C8          1.3855   -1.6353    1.1286 CT        1 <0>       -0.08969
      9 C9         -0.3847   -0.6379    2.5722 CT        1 <0>       -0.08969
     10 C10        -1.3790   -2.2058    0.0270 CT        1 <0>       -0.13036
     11 O1         -0.1413   -0.6304   -1.2307 OS        1 <0>       -0.46148
     12 O2         -1.8873    0.1169    0.2674 OH        1 <0>       -0.61093
     13 H1          1.1826    3.1199   -0.8090 HC        1 <0>        0.03163
     14 H2          1.7493    2.0907   -2.1074 HC        1 <0>        0.03163
     15 H3          2.1092    0.2424   -0.6750 HC        1 <0>        0.04390
     16 H4          2.7078    1.6449    0.1516 HC        1 <0>        0.04390
     17 H5         -0.9589    2.0563   -0.7310 HC        1 <0>        0.05246
     18 H6         -0.6120    2.5249   -2.3702 HC        1 <0>        0.05246
     19 H7          1.6114    0.9664    1.9376 HC        1 <0>        0.04375
     20 H8          0.1789    1.6417    1.2177 HC        1 <0>        0.04375
     21 H9         -1.6685    0.2673   -2.2961 H1        1 <0>        0.03568
     22 H10        -0.0816    0.2650   -3.0453 H1        1 <0>        0.03568
     23 H11         0.9255   -2.6124    1.1950 HC        1 <0>        0.03908
     24 H12         2.0538   -1.4808    1.9654 HC        1 <0>        0.03908
     25 H13         1.9272   -1.5412    0.1967 HC        1 <0>        0.03908
     26 H14        -0.8538   -1.6061    2.6781 HC        1 <0>        0.03908
     27 H15        -1.1236    0.1472    2.6516 HC        1 <0>        0.03908
     28 H16         0.3819   -0.5087    3.3234 HC        1 <0>        0.03908
     29 H17        -2.1073   -2.2891   -0.7737 HC        1 <0>        0.05088
     30 H18        -1.8604   -2.4057    0.9792 HC        1 <0>        0.05088
     31 H19        -0.5779   -2.9207   -0.1334 HC        1 <0>        0.05088
     32 H20        -2.5248   -0.0476   -0.4420 HO        1 <0>        0.40665
@<TRIPOS>BOND
     1    1    2 1
     2    1    3 1
     3    2    4 1
     4    3    5 1
     5    4    6 1
     6    5   11 1
     7    6    7 1
     8    6    8 1
     9    6    9 1
    10    7   10 1
    11    7   11 1
    12    7   12 1
    13    1   13 1
    14    1   14 1
    15    2   15 1
    16    2   16 1
    17    3   17 1
    18    3   18 1
    19    4   19 1
    20    4   20 1
    21    5   21 1
    22    5   22 1
    23    8   23 1
    24    8   24 1
    25    8   25 1
    26    9   26 1
    27    9   27 1
    28    9   28 1
    29   10   29 1
    30   10   30 1
    31   10   31 1
    32   12   32 1
@<TRIPOS>SUBSTRUCTURE
     1 <0>         1 GROUP 0 A     ****
