@<TRIPOS>MOLECULE
AlkEthOH_r88
   20    20     1     0     0
SMALL
USER_CHARGES

@<TRIPOS>ATOM
      1 C1          1.5188   -0.7733    0.2802 CT        1 <0>       -0.06749
      2 C2          0.4134   -1.8001    0.5114 CT        1 <0>       -0.11196
      3 C3          1.1994    0.1814   -0.8692 CT        1 <0>       -0.11175
      4 C4         -0.7552   -1.2980    1.3559 CT        1 <0>        0.12921
      5 C5         -1.2202    0.5395   -0.1063 CT        1 <0>        0.13403
      6 C6          0.0751    1.1798   -0.5937 CT        1 <0>        0.11355
      7 O1         -1.0531    0.0844    1.2281 OS        1 <0>       -0.41536
      8 O2         -0.1782    1.8863   -1.8064 OH        1 <0>       -0.60217
      9 H1          1.7387   -0.2180    1.1992 HC        1 <0>        0.04772
     10 H2          2.4345   -1.3156    0.0134 HC        1 <0>        0.04772
     11 H3          0.0344   -2.1503   -0.4569 HC        1 <0>        0.04615
     12 H4          0.8319   -2.6875    1.0020 HC        1 <0>        0.04615
     13 H5          2.1064    0.7474   -1.1200 HC        1 <0>        0.04420
     14 H6          0.9677   -0.3933   -1.7760 HC        1 <0>        0.04420
     15 H7         -1.6576   -1.8813    1.1386 H1        1 <0>        0.04463
     16 H8         -0.5256   -1.4651    2.4143 H1        1 <0>        0.04463
     17 H9         -2.0107    1.2987   -0.0898 H1        1 <0>        0.05963
     18 H10        -1.5761   -0.2519   -0.7776 H1        1 <0>        0.05963
     19 H11         0.4305    1.9036    0.1499 H1        1 <0>        0.04627
     20 H12         0.6495    2.3320   -2.0434 HO        1 <0>        0.40101
@<TRIPOS>BOND
     1    1    2 1
     2    1    3 1
     3    2    4 1
     4    3    6 1
     5    4    7 1
     6    5    6 1
     7    5    7 1
     8    6    8 1
     9    1    9 1
    10    1   10 1
    11    2   11 1
    12    2   12 1
    13    3   13 1
    14    3   14 1
    15    4   15 1
    16    4   16 1
    17    5   17 1
    18    5   18 1
    19    6   19 1
    20    8   20 1
@<TRIPOS>SUBSTRUCTURE
     1 <0>         1 GROUP 0 A     ****
