@<TRIPOS>MOLECULE
AlkEthOH_r422
   28    28     1     0     0
SMALL
USER_CHARGES

@<TRIPOS>ATOM
      1 C1          0.2037    0.0167    2.2926 CT        1 <0>       -0.05626
      2 C2         -0.4294    1.3006    1.7523 CT        1 <0>       -0.11369
      3 C3          0.4839   -1.1020    1.2825 CT        1 <0>       -0.12911
      4 C4         -1.7270    1.1002    0.9728 CT        1 <0>        0.15503
      5 C5          1.2285   -0.7070   -0.0079 CT        1 <0>        0.36757
      6 C6         -0.7356    0.2789   -1.1149 CT        1 <0>        0.54073
      7 C7          2.6615   -0.2721    0.3221 CT        1 <0>       -0.10132
      8 C8         -1.0459    1.5729   -1.8825 CT        1 <0>       -0.11409
      9 O1         -1.6757    0.1115   -0.0476 OS        1 <0>       -0.48867
     10 O2          0.6363    0.3909   -0.7098 OS        1 <0>       -0.43722
     11 O3          1.3043   -1.8811   -0.8238 OH        1 <0>       -0.59001
     12 O4         -0.9047   -0.8096   -2.0360 OH        1 <0>       -0.57863
     13 H1          1.1417    0.2843    2.7946 HC        1 <0>        0.03743
     14 H2         -0.4467   -0.3913    3.0768 HC        1 <0>        0.03743
     15 H3         -0.6365    1.9682    2.5984 HC        1 <0>        0.05588
     16 H4          0.2999    1.8390    1.1381 HC        1 <0>        0.05588
     17 H5          1.0552   -1.8902    1.7931 HC        1 <0>        0.05901
     18 H6         -0.4588   -1.6013    1.0270 HC        1 <0>        0.05901
     19 H7         -2.5046    0.7742    1.6732 H1        1 <0>        0.04410
     20 H8         -2.0758    2.0512    0.5569 H1        1 <0>        0.04410
     21 H9          3.1773    0.0040   -0.5938 HC        1 <0>        0.05073
     22 H10         3.1891   -1.0930    0.8003 HC        1 <0>        0.05073
     23 H11         2.6362    0.5817    0.9941 HC        1 <0>        0.05073
     24 H12        -0.3307    1.6974   -2.6921 HC        1 <0>        0.05971
     25 H13        -0.9772    2.4228   -1.2078 HC        1 <0>        0.05971
     26 H14        -2.0508    1.5206   -2.2947 HC        1 <0>        0.05971
     27 H15         1.7923   -2.5378   -0.3065 HO        1 <0>        0.40222
     28 H16        -1.8256   -0.7720   -2.3309 HO        1 <0>        0.41929
@<TRIPOS>BOND
     1    1    2 1
     2    1    3 1
     3    2    4 1
     4    3    5 1
     5    4    9 1
     6    5    7 1
     7    5   10 1
     8    5   11 1
     9    6    8 1
    10    6    9 1
    11    6   10 1
    12    6   12 1
    13    1   13 1
    14    1   14 1
    15    2   15 1
    16    2   16 1
    17    3   17 1
    18    3   18 1
    19    4   19 1
    20    4   20 1
    21    7   21 1
    22    7   22 1
    23    7   23 1
    24    8   24 1
    25    8   25 1
    26    8   26 1
    27   11   27 1
    28   12   28 1
@<TRIPOS>SUBSTRUCTURE
     1 <0>         1 GROUP 0 A     ****
