@<TRIPOS>MOLECULE
AlkEthOH_c24
   10     9     1     0     0
SMALL
USER_CHARGES

@<TRIPOS>ATOM
      1 C1         -0.8936    0.4506    0.4416 CT        1 <0>        0.12011
      2 C2         -2.1461   -0.1936   -0.1209 CT        1 <0>        0.12015
      3 O1         -0.8526    0.2362    1.8472 OH        1 <0>       -0.60306
      4 O2         -2.1048   -1.5918    0.1373 OH        1 <0>       -0.60306
      5 H1         -0.8901    1.5299    0.2612 H1        1 <0>        0.03971
      6 H2          0.0000    0.0000    0.0000 H1        1 <0>        0.03971
      7 H3         -2.2121   -0.0487   -1.2038 H1        1 <0>        0.03971
      8 H4         -3.0378    0.2178    0.3611 H1        1 <0>        0.03971
      9 H5         -0.0417    0.6602    2.1705 HO        1 <0>        0.40351
     10 H6         -2.9182   -1.9683   -0.2350 HO        1 <0>        0.40351
@<TRIPOS>BOND
     1    1    2 1
     2    1    3 1
     3    2    4 1
     4    1    5 1
     5    1    6 1
     6    2    7 1
     7    2    8 1
     8    3    9 1
     9    4   10 1
@<TRIPOS>SUBSTRUCTURE
     1 <0>         1 GROUP 0 A     ****
