@<TRIPOS>MOLECULE
AlkEthOH_r967
   23    23     1     0     0
SMALL
USER_CHARGES

@<TRIPOS>ATOM
      1 C1         -1.5901    0.3119   -1.4087 CT        1 <0>       -0.11441
      2 C2         -1.2884   -0.9570   -0.6231 CT        1 <0>       -0.07749
      3 C3         -1.0755    1.5373   -0.6726 CT        1 <0>        0.14378
      4 C4          0.1987   -1.0179   -0.2533 CT        1 <0>       -0.07652
      5 C5          0.6737    0.2896    0.4289 CT        1 <0>        0.35225
      6 C6          0.4969   -2.2794    0.5610 CT        1 <0>       -0.08739
      7 C7          0.1629    0.4734    1.8638 CT        1 <0>       -0.13898
      8 O1          0.3147    1.4179   -0.3823 OS        1 <0>       -0.45797
      9 O2          2.1071    0.2240    0.4863 OH        1 <0>       -0.59563
     10 H1         -1.1429    0.2553   -2.4070 HC        1 <0>        0.05267
     11 H2         -2.6741    0.4008   -1.5460 HC        1 <0>        0.05267
     12 H3         -1.9163   -1.0028    0.2694 HC        1 <0>        0.04479
     13 H4         -1.5462   -1.8245   -1.2372 HC        1 <0>        0.04479
     14 H5         -1.2539    2.4501   -1.2496 H1        1 <0>        0.04596
     15 H6         -1.6044    1.6459    0.2782 H1        1 <0>        0.04596
     16 H7          0.7593   -1.1290   -1.2150 HC        1 <0>        0.07538
     17 H8         -0.0247   -2.2276    1.5126 HC        1 <0>        0.03993
     18 H9          1.5664   -2.3516    0.7376 HC        1 <0>        0.03993
     19 H10         0.1605   -3.1534    0.0104 HC        1 <0>        0.03993
     20 H11         0.5394    1.4100    2.2686 HC        1 <0>        0.05033
     21 H12         0.5089   -0.3507    2.4833 HC        1 <0>        0.05033
     22 H13        -0.9245    0.4925    1.8650 HC        1 <0>        0.05033
     23 H14         2.3953    1.0429    0.9129 HO        1 <0>        0.41936
@<TRIPOS>BOND
     1    1    2 1
     2    1    3 1
     3    2    4 1
     4    3    8 1
     5    4    5 1
     6    4    6 1
     7    5    7 1
     8    5    8 1
     9    5    9 1
    10    1   10 1
    11    1   11 1
    12    2   12 1
    13    2   13 1
    14    3   14 1
    15    3   15 1
    16    4   16 1
    17    6   17 1
    18    6   18 1
    19    6   19 1
    20    7   20 1
    21    7   21 1
    22    7   22 1
    23    9   23 1
@<TRIPOS>SUBSTRUCTURE
     1 <0>         1 GROUP 0 A     ****
