@<TRIPOS>MOLECULE
AlkEthOH_c551
   25    24     1     0     0
SMALL
USER_CHARGES

@<TRIPOS>ATOM
      1 C1         -0.9402    1.7774   -4.4367 CT        1 <0>       -0.10722
      2 C2         -2.8174    1.4977   -2.7785 CT        1 <0>       -0.10722
      3 C3          0.4755    0.8174   -0.5531 CT        1 <0>       -0.11718
      4 C4          1.4087   -0.7635   -2.2846 CT        1 <0>       -0.08220
      5 C5          1.4726   -1.1380   -3.7611 CT        1 <0>        0.13196
      6 C6         -1.3104    1.5392   -2.9807 CT        1 <0>        0.13759
      7 C7          0.5699    0.4916   -2.0374 CT        1 <0>        0.13930
      8 O1          2.2530   -2.3176   -3.9010 OH        1 <0>       -0.60453
      9 O2         -0.7469    0.3091   -2.5505 OS        1 <0>       -0.42329
     10 H1         -1.3565    0.9999   -5.0846 HC        1 <0>        0.04240
     11 H2         -1.3162    2.7502   -4.7712 HC        1 <0>        0.04240
     12 H3          0.1472    1.7985   -4.5689 HC        1 <0>        0.04240
     13 H4         -3.2785    0.7137   -3.3869 HC        1 <0>        0.04240
     14 H5         -3.2650    2.4599   -3.0497 HC        1 <0>        0.04240
     15 H6         -3.0692    1.3190   -1.7273 HC        1 <0>        0.04240
     16 H7          0.0379   -0.0129    0.0092 HC        1 <0>        0.04272
     17 H8         -0.1318    1.7136   -0.3845 HC        1 <0>        0.04272
     18 H9          1.4697    1.0302   -0.1457 HC        1 <0>        0.04272
     19 H10         2.4274   -0.6206   -1.9031 HC        1 <0>        0.06325
     20 H11         0.9913   -1.6145   -1.7307 HC        1 <0>        0.06325
     21 H12         0.4742   -1.3353   -4.1636 H1        1 <0>        0.02700
     22 H13         1.9417   -0.3399   -4.3452 H1        1 <0>        0.02700
     23 H14        -0.8801    2.3319   -2.3600 H1        1 <0>        0.03614
     24 H15         1.0115    1.3445   -2.5644 H1        1 <0>        0.03534
     25 H16         2.2742   -2.5287   -4.8484 HO        1 <0>        0.39825
@<TRIPOS>BOND
     1    1    6 1
     2    2    6 1
     3    3    7 1
     4    4    5 1
     5    4    7 1
     6    5    8 1
     7    6    9 1
     8    7    9 1
     9    1   10 1
    10    1   11 1
    11    1   12 1
    12    2   13 1
    13    2   14 1
    14    2   15 1
    15    3   16 1
    16    3   17 1
    17    3   18 1
    18    4   19 1
    19    4   20 1
    20    5   21 1
    21    5   22 1
    22    6   23 1
    23    7   24 1
    24    8   25 1
@<TRIPOS>SUBSTRUCTURE
     1 <0>         1 GROUP 0 A     ****
