@<TRIPOS>MOLECULE
AlkEthOH_r319
   21    21     1     0     0
SMALL
USER_CHARGES

@<TRIPOS>ATOM
      1 C1         -0.9890    0.8708   -1.3593 CT        1 <0>       -0.07329
      2 C2         -0.3659    1.7706   -0.3020 CT        1 <0>       -0.13859
      3 C3         -1.3350   -0.4884   -0.7558 CT        1 <0>       -0.13020
      4 C4          0.7983    1.0667    0.3908 CT        1 <0>        0.34019
      5 C5         -0.1280   -1.1048   -0.0337 CT        1 <0>        0.34924
      6 C6         -0.5564   -2.3672    0.7144 CT        1 <0>       -0.11299
      7 O1          0.3904   -0.1877    0.9388 OS        1 <0>       -0.38751
      8 O2          1.3313    1.9030    1.4150 OH        1 <0>       -0.57936
      9 O3          0.8542   -1.4631   -1.0081 OH        1 <0>       -0.62061
     10 H1         -1.8904    1.3401   -1.7682 HC        1 <0>        0.04792
     11 H2         -0.2883    0.7407   -2.1928 HC        1 <0>        0.04792
     12 H3         -0.0322    2.7159   -0.7452 HC        1 <0>        0.05800
     13 H4         -1.1283    2.0315    0.4436 HC        1 <0>        0.05800
     14 H5         -2.1585   -0.3451   -0.0445 HC        1 <0>        0.05547
     15 H6         -1.6901   -1.1530   -1.5523 HC        1 <0>        0.05547
     16 H7          1.6144    0.8829   -0.3392 H2        1 <0>        0.05128
     17 H8          0.3013   -2.8011    1.2248 HC        1 <0>        0.05479
     18 H9         -0.9586   -3.0931    0.0105 HC        1 <0>        0.05479
     19 H10        -1.3209   -2.1183    1.4479 HC        1 <0>        0.05479
     20 H11         1.6321    2.7155    0.9794 HO        1 <0>        0.40589
     21 H12         0.4309   -2.1038   -1.5985 HO        1 <0>        0.40880
@<TRIPOS>BOND
     1    1    2 1
     2    1    3 1
     3    2    4 1
     4    3    5 1
     5    4    7 1
     6    4    8 1
     7    5    6 1
     8    5    7 1
     9    5    9 1
    10    1   10 1
    11    1   11 1
    12    2   12 1
    13    2   13 1
    14    3   14 1
    15    3   15 1
    16    4   16 1
    17    6   17 1
    18    6   18 1
    19    6   19 1
    20    8   20 1
    21    9   21 1
@<TRIPOS>SUBSTRUCTURE
     1 <0>         1 GROUP 0 A     ****
