@<TRIPOS>MOLECULE
AlkEthOH_c902
   24    23     1     0     0
SMALL
USER_CHARGES

@<TRIPOS>ATOM
      1 C1          2.0922   -0.6423    2.2515 CT        1 <0>       -0.09081
      2 C2         -0.4961   -2.2192    5.5630 CT        1 <0>       -0.08716
      3 C3         -1.4942   -0.0440    4.8567 CT        1 <0>       -0.08716
      4 C4         -2.4526   -2.2011    4.0146 CT        1 <0>       -0.08716
      5 C5          1.1686   -0.6835    3.4647 CT        1 <0>       -0.11250
      6 C6         -0.1475   -1.4287    3.1842 CT        1 <0>        0.14554
      7 C7         -1.1488   -1.4675    4.3816 CT        1 <0>       -0.08392
      8 O1         -0.7925   -0.8158    2.0639 OH        1 <0>       -0.59679
      9 H1          1.5966   -0.1707    1.3969 HC        1 <0>        0.03753
     10 H2          2.3740   -1.6595    1.9607 HC        1 <0>        0.03753
     11 H3          3.0135   -0.0926    2.4660 HC        1 <0>        0.03753
     12 H4         -0.2244   -3.2449    5.2903 HC        1 <0>        0.03673
     13 H5          0.4133   -1.7087    5.8999 HC        1 <0>        0.03673
     14 H6         -1.1780   -2.2800    6.4192 HC        1 <0>        0.03673
     15 H7         -1.9623    0.5368    4.0542 HC        1 <0>        0.03673
     16 H8         -2.1772   -0.0527    5.7119 HC        1 <0>        0.03673
     17 H9         -0.5939    0.4951    5.1741 HC        1 <0>        0.03673
     18 H10        -2.9672   -1.7157    3.1788 HC        1 <0>        0.03673
     19 H11        -2.2637   -3.2432    3.7353 HC        1 <0>        0.03673
     20 H12        -3.1496   -2.2091    4.8608 HC        1 <0>        0.03673
     21 H13         1.7137   -1.1624    4.2836 HC        1 <0>        0.04412
     22 H14         0.9628    0.3518    3.7586 HC        1 <0>        0.04412
     23 H15         0.0837   -2.4625    2.8954 H1        1 <0>        0.07291
     24 H16        -0.9545    0.1051    2.3153 HO        1 <0>        0.39565
@<TRIPOS>BOND
     1    1    5 1
     2    2    7 1
     3    3    7 1
     4    4    7 1
     5    5    6 1
     6    6    7 1
     7    6    8 1
     8    1    9 1
     9    1   10 1
    10    1   11 1
    11    2   12 1
    12    2   13 1
    13    2   14 1
    14    3   15 1
    15    3   16 1
    16    3   17 1
    17    4   18 1
    18    4   19 1
    19    4   20 1
    20    5   21 1
    21    5   22 1
    22    6   23 1
    23    8   24 1
@<TRIPOS>SUBSTRUCTURE
     1 <0>         1 GROUP 0 A     ****
