@<TRIPOS>MOLECULE
AlkEthOH_r546
   32    32     1     0     0
SMALL
USER_CHARGES

@<TRIPOS>ATOM
      1 C1         -0.9667    0.8105   -1.3747 CT        1 <0>       -0.10187
      2 C2          1.7992    0.0786   -0.2610 CT        1 <0>       -0.13710
      3 C3         -0.4969   -0.3567    0.9463 CT        1 <0>       -0.05329
      4 C4         -0.6754   -0.4697   -2.1581 CT        1 <0>        0.13198
      5 C5          1.5737   -0.9041   -1.4106 CT        1 <0>        0.13934
      6 C6         -1.3490    0.6586    0.1240 CT        1 <0>       -0.03411
      7 C7          1.0407   -0.1868    1.0512 CT        1 <0>        0.16928
      8 C8         -1.2965    2.0567    0.7736 CT        1 <0>       -0.08871
      9 C9         -2.8179    0.1717    0.1978 CT        1 <0>       -0.08871
     10 C10         1.6294   -1.4259    1.7472 CT        1 <0>       -0.12495
     11 O1          0.2377   -1.3650   -1.5408 OS        1 <0>       -0.41513
     12 O2          1.3216    0.9319    1.9052 OH        1 <0>       -0.60379
     13 H1         -0.1156    1.4883   -1.4784 HC        1 <0>        0.04411
     14 H2         -1.7768    1.3384   -1.8980 HC        1 <0>        0.04411
     15 H3          2.8788    0.1110   -0.0531 HC        1 <0>        0.04778
     16 H4          1.6009    1.1016   -0.5929 HC        1 <0>        0.04778
     17 H5         -0.8923   -0.3402    1.9740 HC        1 <0>        0.05835
     18 H6         -0.7227   -1.3710    0.5930 HC        1 <0>        0.05835
     19 H7         -1.6105   -1.0233   -2.2950 H1        1 <0>        0.04343
     20 H8         -0.3142   -0.2215   -3.1632 H1        1 <0>        0.04343
     21 H9          1.9247   -0.4790   -2.3583 H1        1 <0>        0.04346
     22 H10         2.1860   -1.7940   -1.2265 H1        1 <0>        0.04346
     23 H11        -1.5607    1.9705    1.8210 HC        1 <0>        0.03541
     24 H12        -2.0000    2.7081    0.2686 HC        1 <0>        0.03541
     25 H13        -0.2926    2.4538    0.6782 HC        1 <0>        0.03541
     26 H14        -3.0955    0.0623    1.2373 HC        1 <0>        0.03541
     27 H15        -2.8943   -0.7793   -0.3114 HC        1 <0>        0.03541
     28 H16        -3.4511    0.9050   -0.2829 HC        1 <0>        0.03541
     29 H17         1.0904   -1.6075    2.6713 HC        1 <0>        0.04284
     30 H18         2.6779   -1.2502    1.9645 HC        1 <0>        0.04284
     31 H19         1.5310   -2.2853    1.0920 HC        1 <0>        0.04284
     32 H20         2.2812    0.9414    2.0243 HO        1 <0>        0.39182
@<TRIPOS>BOND
     1    1    4 1
     2    1    6 1
     3    2    5 1
     4    2    7 1
     5    3    6 1
     6    3    7 1
     7    4   11 1
     8    5   11 1
     9    6    8 1
    10    6    9 1
    11    7   10 1
    12    7   12 1
    13    1   13 1
    14    1   14 1
    15    2   15 1
    16    2   16 1
    17    3   17 1
    18    3   18 1
    19    4   19 1
    20    4   20 1
    21    5   21 1
    22    5   22 1
    23    8   23 1
    24    8   24 1
    25    8   25 1
    26    9   26 1
    27    9   27 1
    28    9   28 1
    29   10   29 1
    30   10   30 1
    31   10   31 1
    32   12   32 1
@<TRIPOS>SUBSTRUCTURE
     1 <0>         1 GROUP 0 A     ****
