@<TRIPOS>MOLECULE
AlkEthOH_r117
   16    16     1     0     0
SMALL
USER_CHARGES

@<TRIPOS>ATOM
      1 C1         -0.6935   -0.7334   -0.4273 CT        1 <0>        0.10424
      2 C2         -0.4950   -2.1061    0.1883 CT        1 <0>        0.10428
      3 C3          0.8516   -1.2646   -2.1250 CT        1 <0>        0.31947
      4 C4          1.0831   -2.6328   -1.4801 CT        1 <0>        0.31947
      5 O1         -0.4725   -0.8109   -1.8354 OS        1 <0>       -0.45598
      6 O2          0.8346   -2.5541   -0.0749 OS        1 <0>       -0.45598
      7 O3          1.0255   -1.3962   -3.5330 OH        1 <0>       -0.58123
      8 O4          2.4344   -3.0182   -1.7162 OH        1 <0>       -0.58123
      9 H1         -1.7039   -0.3590   -0.2437 H1        1 <0>        0.06145
     10 H2          0.0196   -0.0200   -0.0102 H1        1 <0>        0.06145
     11 H3         -0.6573   -2.0835    1.2691 H1        1 <0>        0.06145
     12 H4         -1.1893   -2.8254   -0.2501 H1        1 <0>        0.06145
     13 H5          1.5474   -0.5410   -1.7488 H2        1 <0>        0.06472
     14 H6          0.4271   -3.3705   -1.8982 H2        1 <0>        0.06472
     15 H7          0.8734   -0.5173   -3.9140 HO        1 <0>        0.42586
     16 H8          2.5518   -3.8853   -1.2979 HO        1 <0>        0.42586
@<TRIPOS>BOND
     1    1    2 1
     2    1    5 1
     3    2    6 1
     4    3    4 1
     5    3    5 1
     6    3    7 1
     7    4    6 1
     8    4    8 1
     9    1    9 1
    10    1   10 1
    11    2   11 1
    12    2   12 1
    13    3   13 1
    14    4   14 1
    15    7   15 1
    16    8   16 1
@<TRIPOS>SUBSTRUCTURE
     1 <0>         1 GROUP 0 A     ****
