@<TRIPOS>MOLECULE
AlkEthOH_c229
   22    21     1     0     0
SMALL
USER_CHARGES

@<TRIPOS>ATOM
      1 C1          0.7956   -0.5308    0.5350 CT        1 <0>       -0.08791
      2 C2          2.4619    1.2779    0.0738 CT        1 <0>       -0.08791
      3 C3          1.9080   -2.2927   -3.1685 CT        1 <0>        0.11860
      4 C4          3.2609   -1.0520    0.6410 CT        1 <0>        0.13685
      5 C5          2.1671   -0.5752   -1.5855 CT        1 <0>        0.13411
      6 C6          2.1739   -0.2263   -0.0821 CT        1 <0>       -0.04975
      7 O1          4.5482   -0.7925    0.0938 OH        1 <0>       -0.60528
      8 O2          1.8791   -1.9529   -1.7892 OS        1 <0>       -0.42595
      9 H1          0.5429   -1.5936    0.4491 HC        1 <0>        0.04030
     10 H2          0.7770   -0.2742    1.6002 HC        1 <0>        0.04030
     11 H3          0.0007    0.0386    0.0411 HC        1 <0>        0.04030
     12 H4          3.4367    1.5388   -0.3537 HC        1 <0>        0.04030
     13 H5          1.7072    1.8892   -0.4328 HC        1 <0>        0.04030
     14 H6          2.4732    1.5688    1.1302 HC        1 <0>        0.04030
     15 H7          1.6830   -3.3554   -3.2875 H1        1 <0>        0.03113
     16 H8          2.8963   -2.0704   -3.5788 H1        1 <0>        0.03113
     17 H9          1.1554   -1.7019   -3.6960 H1        1 <0>        0.03113
     18 H10         3.2958   -0.8094    1.7086 H1        1 <0>        0.03082
     19 H11         3.0607   -2.1246    0.5409 H1        1 <0>        0.03082
     20 H12         1.4096    0.0114   -2.1174 H1        1 <0>        0.03593
     21 H13         3.1424   -0.3616   -2.0371 H1        1 <0>        0.03593
     22 H14         5.1777   -1.3393    0.5904 HO        1 <0>        0.39855
@<TRIPOS>BOND
     1    1    6 1
     2    2    6 1
     3    3    8 1
     4    4    6 1
     5    4    7 1
     6    5    6 1
     7    5    8 1
     8    1    9 1
     9    1   10 1
    10    1   11 1
    11    2   12 1
    12    2   13 1
    13    2   14 1
    14    3   15 1
    15    3   16 1
    16    3   17 1
    17    4   18 1
    18    4   19 1
    19    5   20 1
    20    5   21 1
    21    7   22 1
@<TRIPOS>SUBSTRUCTURE
     1 <0>         1 GROUP 0 A     ****
