@<TRIPOS>MOLECULE
AlkEthOH_c1205
   28    27     1     0     0
SMALL
USER_CHARGES

@<TRIPOS>ATOM
      1 C1          3.1418   -1.7831   -1.5003 CT        1 <0>       -0.09738
      2 C2          0.3715    0.9887    2.0809 CT        1 <0>       -0.09541
      3 C3         -1.5357   -0.5635    2.5251 CT        1 <0>       -0.09541
      4 C4         -0.6753    0.3065   -2.3276 CT        1 <0>       -0.13950
      5 C5         -0.9613   -0.0410    0.1341 CT        1 <0>       -0.09376
      6 C6          2.2522   -0.5634   -1.6130 CT        1 <0>        0.14245
      7 C7         -0.3917   -0.2287    1.5613 CT        1 <0>       -0.06416
      8 C8          0.0678    0.2425   -0.9861 CT        1 <0>        0.35489
      9 O1          0.6573    1.5156   -0.7193 OH        1 <0>       -0.62784
     10 O2          1.0189   -0.8288   -0.9617 OS        1 <0>       -0.42765
     11 H1          3.3448   -2.0225   -0.4527 HC        1 <0>        0.04252
     12 H2          2.6710   -2.6496   -1.9761 HC        1 <0>        0.04252
     13 H3          4.0936   -1.6154   -2.0151 HC        1 <0>        0.04252
     14 H4         -0.2739    1.8738    2.1009 HC        1 <0>        0.03506
     15 H5          1.2359    1.2167    1.4486 HC        1 <0>        0.03506
     16 H6          0.7219    0.8300    3.1049 HC        1 <0>        0.03506
     17 H7         -2.2593    0.2572    2.5716 HC        1 <0>        0.03506
     18 H8         -1.1612   -0.7443    3.5386 HC        1 <0>        0.03506
     19 H9         -2.0722   -1.4602    2.1969 HC        1 <0>        0.03506
     20 H10         0.0137    0.5060   -3.1548 HC        1 <0>        0.04823
     21 H11        -1.2142   -0.6269   -2.5238 HC        1 <0>        0.04823
     22 H12        -1.4287    1.1017   -2.3294 HC        1 <0>        0.04823
     23 H13        -1.7052    0.7669    0.1537 HC        1 <0>        0.05090
     24 H14        -1.4973   -0.9664   -0.1184 HC        1 <0>        0.05090
     25 H15         2.0531   -0.3295   -2.6631 H1        1 <0>        0.03685
     26 H16         2.7238    0.3012   -1.1364 H1        1 <0>        0.03685
     27 H17         0.2939   -1.0851    1.5602 HC        1 <0>        0.06994
     28 H18        -0.0503    2.1803   -0.6792 HO        1 <0>        0.41572
@<TRIPOS>BOND
     1    1    6 1
     2    2    7 1
     3    3    7 1
     4    4    8 1
     5    5    7 1
     6    5    8 1
     7    6   10 1
     8    8    9 1
     9    8   10 1
    10    1   11 1
    11    1   12 1
    12    1   13 1
    13    2   14 1
    14    2   15 1
    15    2   16 1
    16    3   17 1
    17    3   18 1
    18    3   19 1
    19    4   20 1
    20    4   21 1
    21    4   22 1
    22    5   23 1
    23    5   24 1
    24    6   25 1
    25    6   26 1
    26    7   27 1
    27    9   28 1
@<TRIPOS>SUBSTRUCTURE
     1 <0>         1 GROUP 0 A     ****
