@<TRIPOS>MOLECULE
AlkEthOH_r533
   29    29     1     0     0
SMALL
USER_CHARGES

@<TRIPOS>ATOM
      1 C1          0.2922   -1.6655   -0.4959 CT        1 <0>       -0.13107
      2 C2         -0.2134   -1.8830    0.9200 CT        1 <0>        0.13037
      3 C3         -0.1086    0.3017    1.8598 CT        1 <0>        0.10644
      4 C4         -0.3237   -0.4638   -1.2408 CT        1 <0>        0.16472
      5 C5          0.2199    1.1470    0.6194 CT        1 <0>        0.13534
      6 C6          0.5368   -0.1128   -2.4653 CT        1 <0>       -0.10300
      7 C7         -1.7192   -0.8619   -1.7638 CT        1 <0>       -0.10300
      8 C8          1.7220    1.2417    0.3373 CT        1 <0>       -0.10066
      9 C9         -0.2864    2.5780    0.8969 CT        1 <0>       -0.10066
     10 O1          0.4446   -1.0064    1.8254 OS        1 <0>       -0.41518
     11 O2         -0.5643    0.7252   -0.4930 OS        1 <0>       -0.43036
     12 H1          1.3823   -1.5634   -0.4587 HC        1 <0>        0.05735
     13 H2          0.1062   -2.5759   -1.0810 HC        1 <0>        0.05735
     14 H3         -1.3024   -1.8053    1.0071 H1        1 <0>        0.05044
     15 H4          0.0574   -2.8984    1.2297 H1        1 <0>        0.05044
     16 H5          0.3104    0.7819    2.7518 H1        1 <0>        0.05444
     17 H6         -1.1926    0.2288    2.0149 H1        1 <0>        0.05444
     18 H7          0.0964    0.7333   -2.9832 HC        1 <0>        0.04200
     19 H8          0.5772   -0.9678   -3.1328 HC        1 <0>        0.04200
     20 H9          1.5400    0.1420   -2.1381 HC        1 <0>        0.04200
     21 H10        -2.1544   -0.0191   -2.2878 HC        1 <0>        0.04200
     22 H11        -2.3463   -1.1374   -0.9240 HC        1 <0>        0.04200
     23 H12        -1.6171   -1.7032   -2.4393 HC        1 <0>        0.04200
     24 H13         1.8896    1.8499   -0.5485 HC        1 <0>        0.04510
     25 H14         2.1258    0.2458    0.1714 HC        1 <0>        0.04510
     26 H15         2.2251    1.6972    1.1870 HC        1 <0>        0.04510
     27 H16        -0.0695    3.2023    0.0383 HC        1 <0>        0.04510
     28 H17         0.2182    2.9675    1.7731 HC        1 <0>        0.04510
     29 H18        -1.3556    2.5471    1.0700 HC        1 <0>        0.04510
@<TRIPOS>BOND
     1    1    2 1
     2    1    4 1
     3    2   10 1
     4    3    5 1
     5    3   10 1
     6    4    6 1
     7    4    7 1
     8    4   11 1
     9    5    8 1
    10    5    9 1
    11    5   11 1
    12    1   12 1
    13    1   13 1
    14    2   14 1
    15    2   15 1
    16    3   16 1
    17    3   17 1
    18    6   18 1
    19    6   19 1
    20    6   20 1
    21    7   21 1
    22    7   22 1
    23    7   23 1
    24    8   24 1
    25    8   25 1
    26    8   26 1
    27    9   27 1
    28    9   28 1
    29    9   29 1
@<TRIPOS>SUBSTRUCTURE
     1 <0>         1 GROUP 0 A     ****
