@<TRIPOS>MOLECULE
AlkEthOH_c106
   28    27     1     0     0
SMALL
USER_CHARGES

@<TRIPOS>ATOM
      1 C1          3.6274   -0.1422    0.1487 CT        1 <0>       -0.12657
      2 C2         -1.8460   -1.5145   -0.1882 CT        1 <0>       -0.08887
      3 C3         -2.7673    0.7801    0.2162 CT        1 <0>       -0.08887
      4 C4         -1.3428   -0.3204    1.9452 CT        1 <0>       -0.08887
      5 C5         -0.2447    0.4716   -0.1635 CT        1 <0>       -0.09757
      6 C6          2.3031    0.5916   -0.0319 CT        1 <0>        0.10812
      7 C7          1.0582   -0.3055    0.0922 CT        1 <0>        0.14384
      8 C8         -1.5518   -0.1353    0.4276 CT        1 <0>       -0.04970
      9 O1          2.2103    1.6081    0.9685 OH        1 <0>       -0.60246
     10 O2          1.1553   -1.3753   -0.8478 OH        1 <0>       -0.59624
     11 H1          3.6698   -0.6582    1.1137 HC        1 <0>        0.04765
     12 H2          3.8006   -0.8689   -0.6496 HC        1 <0>        0.04765
     13 H3          4.4587    0.5716    0.1449 HC        1 <0>        0.04765
     14 H4         -0.9982   -2.1958   -0.0559 HC        1 <0>        0.03573
     15 H5         -2.0591   -1.4463   -1.2596 HC        1 <0>        0.03573
     16 H6         -2.7200   -1.9777    0.2844 HC        1 <0>        0.03573
     17 H7         -2.6035    1.7762    0.6395 HC        1 <0>        0.03573
     18 H8         -3.6671    0.3558    0.6750 HC        1 <0>        0.03573
     19 H9         -2.9744    0.9188   -0.8514 HC        1 <0>        0.03573
     20 H10        -1.1289    0.6363    2.4351 HC        1 <0>        0.03573
     21 H11        -2.2347   -0.7468    2.4182 HC        1 <0>        0.03573
     22 H12        -0.5033   -0.9936    2.1528 HC        1 <0>        0.03573
     23 H13        -0.3830    0.5748   -1.2483 HC        1 <0>        0.05356
     24 H14        -0.1326    1.4871    0.2397 HC        1 <0>        0.05356
     25 H15         2.2917    1.0967   -1.0046 H1        1 <0>        0.02760
     26 H16         1.0521   -0.7555    1.0898 H1        1 <0>        0.08985
     27 H17         2.9653    2.1983    0.8277 HO        1 <0>        0.40228
     28 H18         1.1577   -0.9680   -1.7272 HO        1 <0>        0.39582
@<TRIPOS>BOND
     1    1    6 1
     2    2    8 1
     3    3    8 1
     4    4    8 1
     5    5    7 1
     6    5    8 1
     7    6    7 1
     8    6    9 1
     9    7   10 1
    10    1   11 1
    11    1   12 1
    12    1   13 1
    13    2   14 1
    14    2   15 1
    15    2   16 1
    16    3   17 1
    17    3   18 1
    18    3   19 1
    19    4   20 1
    20    4   21 1
    21    4   22 1
    22    5   23 1
    23    5   24 1
    24    6   25 1
    25    7   26 1
    26    9   27 1
    27   10   28 1
@<TRIPOS>SUBSTRUCTURE
     1 <0>         1 GROUP 0 A     ****
