@<TRIPOS>MOLECULE
AlkEthOH_r3
   11    11     1     0     0
SMALL
USER_CHARGES

@<TRIPOS>ATOM
      1 C1         -0.1518    1.0243   -0.4581 CT        1 <0>        0.09858
      2 C2          0.0154   -1.0289   -0.4679 CT        1 <0>        0.09858
      3 C3         -0.3890   -0.0338    0.6192 CT        1 <0>        0.07939
      4 O1          0.0644    0.0133   -1.4687 OS        1 <0>       -0.41954
      5 O2         -1.7305   -0.1416    1.1207 OH        1 <0>       -0.57697
      6 H1         -1.0151    1.6535   -0.6921 H1        1 <0>        0.06472
      7 H2          0.7364    1.6491   -0.3246 H1        1 <0>        0.06472
      8 H3          0.9933   -1.5027   -0.3381 H1        1 <0>        0.06472
      9 H4         -0.7347   -1.7875   -0.7081 H1        1 <0>        0.06472
     10 H5          0.3307    0.0242    1.4432 H1        1 <0>        0.05466
     11 H6         -1.7101   -0.8448    1.7837 HO        1 <0>        0.40642
@<TRIPOS>BOND
     1    1    3 1
     2    1    4 1
     3    2    3 1
     4    2    4 1
     5    3    5 1
     6    1    6 1
     7    1    7 1
     8    2    8 1
     9    2    9 1
    10    3   10 1
    11    5   11 1
@<TRIPOS>SUBSTRUCTURE
     1 <0>         1 GROUP 0 A     ****
