@<TRIPOS>MOLECULE
AlkEthOH_c730
   21    20     1     0     0
SMALL
USER_CHARGES

@<TRIPOS>ATOM
      1 C1         -1.3167    0.8501   -0.3823 CT        1 <0>       -0.14507
      2 C2         -0.3912   -1.3528    0.4494 CT        1 <0>       -0.10228
      3 C3          0.6592   -2.1188    1.2473 CT        1 <0>        0.13651
      4 C4          1.4715    1.8336   -0.0113 CT        1 <0>        0.33620
      5 C5         -0.2406    0.1810    0.4793 CT        1 <0>        0.35087
      6 O1          0.4104   -3.5123    1.1052 OH        1 <0>       -0.61224
      7 O2          1.4287    2.4608    1.2614 OH        1 <0>       -0.59342
      8 O3         -0.4255    0.5530    1.8489 OH        1 <0>       -0.58621
      9 O4          1.0875    0.4636    0.0176 OS        1 <0>       -0.40924
     10 H1         -1.2166    1.9410   -0.3664 HC        1 <0>        0.05139
     11 H2         -1.2540    0.5340   -1.4281 HC        1 <0>        0.05139
     12 H3         -2.3192    0.6329    0.0027 HC        1 <0>        0.05139
     13 H4         -1.3827   -1.6233    0.8400 HC        1 <0>        0.06249
     14 H5         -0.3993   -1.7132   -0.5883 HC        1 <0>        0.06249
     15 H6          1.6675   -1.9154    0.8757 H1        1 <0>        0.03931
     16 H7          0.6115   -1.8687    2.3113 H1        1 <0>        0.03931
     17 H8          2.5002    1.8839   -0.3826 H2        1 <0>        0.03158
     18 H9          0.8535    2.4013   -0.7121 H2        1 <0>        0.03158
     19 H10         1.0919   -3.9712    1.6217 HO        1 <0>        0.40125
     20 H11         1.7055    3.3843    1.1359 HO        1 <0>        0.40037
     21 H12        -1.3082    0.2563    2.1266 HO        1 <0>        0.40233
@<TRIPOS>BOND
     1    1    5 1
     2    2    3 1
     3    2    5 1
     4    3    6 1
     5    4    7 1
     6    4    9 1
     7    5    8 1
     8    5    9 1
     9    1   10 1
    10    1   11 1
    11    1   12 1
    12    2   13 1
    13    2   14 1
    14    3   15 1
    15    3   16 1
    16    4   17 1
    17    4   18 1
    18    6   19 1
    19    7   20 1
    20    8   21 1
@<TRIPOS>SUBSTRUCTURE
     1 <0>         1 GROUP 0 A     ****
