@<TRIPOS>MOLECULE
AlkEthOH_c1164
   25    24     1     0     0
SMALL
USER_CHARGES

@<TRIPOS>ATOM
      1 C1         -3.3074   -2.3890    0.1796 CT        1 <0>       -0.09649
      2 C2          0.3834    0.3610    1.7823 CT        1 <0>       -0.08845
      3 C3          1.3209    1.6431   -0.1552 CT        1 <0>       -0.08845
      4 C4          1.6446   -0.8362   -0.0070 CT        1 <0>       -0.08845
      5 C5         -2.7201   -1.0831   -0.3118 CT        1 <0>        0.13258
      6 C6         -0.6841    0.1252   -0.4961 CT        1 <0>        0.33337
      7 C7          0.6602    0.3181    0.2660 CT        1 <0>       -0.07108
      8 O1         -0.5043    0.1393   -1.9112 OH        1 <0>       -0.62258
      9 O2         -1.3214   -1.0806   -0.0596 OS        1 <0>       -0.45564
     10 H1         -2.8576   -3.2393   -0.3405 HC        1 <0>        0.04446
     11 H2         -3.1430   -2.5055    1.2558 HC        1 <0>        0.04446
     12 H3         -4.3905   -2.4095    0.0191 HC        1 <0>        0.04446
     13 H4         -0.0885   -0.5675    2.1232 HC        1 <0>        0.04041
     14 H5         -0.2894    1.1875    2.0386 HC        1 <0>        0.04041
     15 H6          1.3063    0.4981    2.3567 HC        1 <0>        0.04041
     16 H7          1.5343    1.6520   -1.2300 HC        1 <0>        0.04041
     17 H8          0.6681    2.4966    0.0608 HC        1 <0>        0.04041
     18 H9          2.2644    1.8100    0.3755 HC        1 <0>        0.04041
     19 H10         1.8817   -0.9185   -1.0731 HC        1 <0>        0.04041
     20 H11         1.2185   -1.7959    0.3080 HC        1 <0>        0.04041
     21 H12         2.5858   -0.7091    0.5373 HC        1 <0>        0.04041
     22 H13        -3.1743   -0.2368    0.2123 H1        1 <0>        0.03127
     23 H14        -2.8846   -0.9687   -1.3874 H1        1 <0>        0.03127
     24 H15        -1.3417    0.9705   -0.2557 H2        1 <0>        0.07140
     25 H16         0.0958   -0.5824   -2.1560 HO        1 <0>        0.41418
@<TRIPOS>BOND
     1    1    5 1
     2    2    7 1
     3    3    7 1
     4    4    7 1
     5    5    9 1
     6    6    7 1
     7    6    8 1
     8    6    9 1
     9    1   10 1
    10    1   11 1
    11    1   12 1
    12    2   13 1
    13    2   14 1
    14    2   15 1
    15    3   16 1
    16    3   17 1
    17    3   18 1
    18    4   19 1
    19    4   20 1
    20    4   21 1
    21    5   22 1
    22    5   23 1
    23    6   24 1
    24    8   25 1
@<TRIPOS>SUBSTRUCTURE
     1 <0>         1 GROUP 0 A     ****
