@<TRIPOS>MOLECULE
AlkEthOH_r1142
   14    14     1     0     0
SMALL
USER_CHARGES

@<TRIPOS>ATOM
      1 C1          0.9953    0.2611   -0.3758 CT        1 <0>        0.10660
      2 C2          1.3298    1.7012   -0.0991 CT        1 <0>        0.10660
      3 C3          0.5761    1.5129   -2.2172 CT        1 <0>        0.33761
      4 C4         -0.8145    1.4796   -2.8215 CT        1 <0>       -0.11961
      5 O1          0.9599    0.1952   -1.8012 OS        1 <0>       -0.44462
      6 O2          0.5856    2.4026   -1.0933 OS        1 <0>       -0.44462
      7 H1          1.7296   -0.4410    0.0266 H1        1 <0>        0.05870
      8 H2          0.0001    0.0002   -0.0000 H1        1 <0>        0.05870
      9 H3          1.0439    2.0291    0.9032 H1        1 <0>        0.05870
     10 H4          2.3937    1.9074   -0.2604 H1        1 <0>        0.05870
     11 H5          1.3045    1.8672   -2.9545 H2        1 <0>        0.06577
     12 H6         -1.5402    1.1261   -2.0854 HC        1 <0>        0.05249
     13 H7         -0.8380    0.8088   -3.6834 HC        1 <0>        0.05249
     14 H8         -1.1100    2.4788   -3.1497 HC        1 <0>        0.05249
@<TRIPOS>BOND
     1    1    2 1
     2    1    5 1
     3    2    6 1
     4    3    4 1
     5    3    5 1
     6    3    6 1
     7    1    7 1
     8    1    8 1
     9    2    9 1
    10    2   10 1
    11    3   11 1
    12    4   12 1
    13    4   13 1
    14    4   14 1
@<TRIPOS>SUBSTRUCTURE
     1 <0>         1 GROUP 0 A     ****
