@<TRIPOS>MOLECULE
AlkEthOH_r313
   25    25     1     0     0
SMALL
USER_CHARGES

@<TRIPOS>ATOM
      1 C1          0.4095   -0.9820   -0.2638 CT        1 <0>       -0.07444
      2 C2          1.4580   -0.8166   -1.3566 CT        1 <0>       -0.07521
      3 C3         -0.7278   -1.9025   -0.7078 CT        1 <0>       -0.07066
      4 C4          0.8483   -3.0795   -2.2967 CT        1 <0>       -0.10444
      5 C5          1.9867   -2.1623   -1.8464 CT        1 <0>        0.14316
      6 C6         -0.2426   -3.2777   -1.2215 CT        1 <0>       -0.04709
      7 C7          0.2939   -4.1323   -0.0570 CT        1 <0>       -0.08766
      8 C8         -1.4337   -4.0264   -1.8485 CT        1 <0>       -0.08766
      9 O1          2.8610   -1.9539   -2.9524 OH        1 <0>       -0.60104
     10 H1          0.8807   -1.3766    0.6437 HC        1 <0>        0.04210
     11 H2          0.0003   -0.0001    0.0005 HC        1 <0>        0.04210
     12 H3          1.0301   -0.2592   -2.2002 HC        1 <0>        0.05321
     13 H4          2.2898   -0.2028   -0.9903 HC        1 <0>        0.05321
     14 H5         -1.4304   -2.0342    0.1244 HC        1 <0>        0.04141
     15 H6         -1.2868   -1.3940   -1.5049 HC        1 <0>        0.04141
     16 H7          0.4000   -2.6570   -3.2071 HC        1 <0>        0.04631
     17 H8          1.2626   -4.0479   -2.6074 HC        1 <0>        0.04631
     18 H9          2.5714   -2.6442   -1.0554 H1        1 <0>        0.03193
     19 H10         0.6271   -5.0893   -0.4423 HC        1 <0>        0.03496
     20 H11        -0.4986   -4.2839    0.6672 HC        1 <0>        0.03496
     21 H12         1.1245   -3.6151    0.4102 HC        1 <0>        0.03496
     22 H13        -1.0973   -4.9919   -2.2102 HC        1 <0>        0.03496
     23 H14        -1.8270   -3.4426   -2.6736 HC        1 <0>        0.03496
     24 H15        -2.2034   -4.1641   -1.0970 HC        1 <0>        0.03496
     25 H16         3.1708   -2.8303   -3.2287 HO        1 <0>        0.39729
@<TRIPOS>BOND
     1    1    2 1
     2    1    3 1
     3    2    5 1
     4    3    6 1
     5    4    5 1
     6    4    6 1
     7    5    9 1
     8    6    7 1
     9    6    8 1
    10    1   10 1
    11    1   11 1
    12    2   12 1
    13    2   13 1
    14    3   14 1
    15    3   15 1
    16    4   16 1
    17    4   17 1
    18    5   18 1
    19    7   19 1
    20    7   20 1
    21    7   21 1
    22    8   22 1
    23    8   23 1
    24    8   24 1
    25    9   25 1
@<TRIPOS>SUBSTRUCTURE
     1 <0>         1 GROUP 0 A     ****
