@<TRIPOS>MOLECULE
AlkEthOH_r863
   30    30     1     0     0
SMALL
USER_CHARGES

@<TRIPOS>ATOM
      1 C1          1.7616    0.7903   -1.1947 CT        1 <0>       -0.07374
      2 C2          1.5258   -0.7152   -1.1014 CT        1 <0>       -0.07145
      3 C3          0.5079    1.6576   -1.1314 CT        1 <0>       -0.07177
      4 C4          1.1315   -1.1586    0.3068 CT        1 <0>       -0.06633
      5 C5         -1.1325    0.0899    0.0229 CT        1 <0>       -0.06278
      6 C6         -0.3909    1.4384    0.0988 CT        1 <0>       -0.05976
      7 C7         -0.3830   -1.1289    0.6169 CT        1 <0>       -0.04999
      8 C8         -1.4179    2.5775    0.1650 CT        1 <0>       -0.09138
      9 C9         -0.5570   -1.1403    2.1516 CT        1 <0>       -0.08772
     10 C10        -1.0455   -2.4109    0.0656 CT        1 <0>       -0.08772
     11 H1          2.4583    1.1036   -0.4069 HC        1 <0>        0.03594
     12 H2          2.2677    1.0010   -2.1454 HC        1 <0>        0.03594
     13 H3          0.8005   -1.0461   -1.8522 HC        1 <0>        0.03928
     14 H4          2.4745   -1.2071   -1.3519 HC        1 <0>        0.03928
     15 H5          0.8367    2.7050   -1.1550 HC        1 <0>        0.03586
     16 H6         -0.0769    1.5073   -2.0485 HC        1 <0>        0.03586
     17 H7          1.4991   -2.1829    0.4580 HC        1 <0>        0.03736
     18 H8          1.6796   -0.5502    1.0385 HC        1 <0>        0.03736
     19 H9         -2.0999    0.1734    0.5379 HC        1 <0>        0.03924
     20 H10        -1.3922   -0.1098   -1.0259 HC        1 <0>        0.03924
     21 H11         0.2145    1.4941    1.0108 HC        1 <0>        0.05100
     22 H12        -2.0396    2.5556   -0.7254 HC        1 <0>        0.03240
     23 H13        -0.8983    3.5296    0.2212 HC        1 <0>        0.03240
     24 H14        -2.0410    2.4515    1.0457 HC        1 <0>        0.03240
     25 H15        -1.6142   -1.1197    2.3859 HC        1 <0>        0.03318
     26 H16        -0.0688   -0.2676    2.5675 HC        1 <0>        0.03318
     27 H17        -0.1071   -2.0413    2.5500 HC        1 <0>        0.03318
     28 H18        -2.1052   -2.3820    0.2868 HC        1 <0>        0.03318
     29 H19        -0.5918   -3.2726    0.5392 HC        1 <0>        0.03318
     30 H20        -0.8918   -2.4532   -1.0056 HC        1 <0>        0.03318
@<TRIPOS>BOND
     1    1    2 1
     2    1    3 1
     3    2    4 1
     4    3    6 1
     5    4    7 1
     6    5    6 1
     7    5    7 1
     8    6    8 1
     9    7    9 1
    10    7   10 1
    11    1   11 1
    12    1   12 1
    13    2   13 1
    14    2   14 1
    15    3   15 1
    16    3   16 1
    17    4   17 1
    18    4   18 1
    19    5   19 1
    20    5   20 1
    21    6   21 1
    22    8   22 1
    23    8   23 1
    24    8   24 1
    25    9   25 1
    26    9   26 1
    27    9   27 1
    28   10   28 1
    29   10   29 1
    30   10   30 1
@<TRIPOS>SUBSTRUCTURE
     1 <0>         1 GROUP 0 A     ****
