@<TRIPOS>MOLECULE
AlkEthOH_r524
   19    19     1     0     0
SMALL
USER_CHARGES

@<TRIPOS>ATOM
      1 C1          0.1343    0.4884   -1.1512 CT        1 <0>       -0.10763
      2 C2          1.2972    1.1041   -0.3972 CT        1 <0>        0.12452
      3 C3         -0.2627    0.3360    1.1568 CT        1 <0>        0.13088
      4 C4         -0.4766   -0.4593   -0.1286 CT        1 <0>       -0.08431
      5 C5          0.2928   -1.7896   -0.0809 CT        1 <0>       -0.08354
      6 C6         -1.9548   -0.7357   -0.3974 CT        1 <0>       -0.08354
      7 O1          0.9699    1.0560    0.9984 OS        1 <0>       -0.42900
      8 H1         -0.5792    1.2796   -1.4145 HC        1 <0>        0.05531
      9 H2          0.4486    0.0064   -2.0820 HC        1 <0>        0.05531
     10 H3          2.2202    0.5346   -0.5466 H1        1 <0>        0.04620
     11 H4          1.4813    2.1407   -0.6941 H1        1 <0>        0.04620
     12 H5         -1.0532    1.0793    1.3140 H1        1 <0>        0.04831
     13 H6         -0.2019   -0.2909    2.0517 H1        1 <0>        0.04831
     14 H7         -0.1649   -2.4428    0.6552 HC        1 <0>        0.03883
     15 H8          1.3250   -1.5975    0.1939 HC        1 <0>        0.03883
     16 H9          0.2570   -2.2601   -1.0584 HC        1 <0>        0.03883
     17 H10        -2.3460   -1.4159    0.3572 HC        1 <0>        0.03883
     18 H11        -2.0725   -1.1877   -1.3807 HC        1 <0>        0.03883
     19 H12        -2.5163    0.1964   -0.3633 HC        1 <0>        0.03883
@<TRIPOS>BOND
     1    1    2 1
     2    1    4 1
     3    2    7 1
     4    3    4 1
     5    3    7 1
     6    4    5 1
     7    4    6 1
     8    1    8 1
     9    1    9 1
    10    2   10 1
    11    2   11 1
    12    3   12 1
    13    3   13 1
    14    5   14 1
    15    5   15 1
    16    5   16 1
    17    6   17 1
    18    6   18 1
    19    6   19 1
@<TRIPOS>SUBSTRUCTURE
     1 <0>         1 GROUP 0 A     ****
