@<TRIPOS>MOLECULE
AlkEthOH_c1234
   22    21     1     0     0
SMALL
USER_CHARGES

@<TRIPOS>ATOM
      1 C1         -2.7687    1.2974   -3.3525 CT        1 <0>       -0.09612
      2 C2          0.4755    0.8174   -0.5531 CT        1 <0>       -0.12150
      3 C3          1.4087   -0.7635   -2.2846 CT        1 <0>       -0.08154
      4 C4         -1.3783    1.5537   -2.8115 CT        1 <0>        0.12942
      5 C5          1.4726   -1.1380   -3.7611 CT        1 <0>        0.13384
      6 C6          0.5699    0.4916   -2.0374 CT        1 <0>        0.14100
      7 O1          2.2530   -2.3176   -3.9010 OH        1 <0>       -0.60570
      8 O2         -0.7469    0.3091   -2.5505 OS        1 <0>       -0.42442
      9 H1         -2.7258    0.7258   -4.2838 HC        1 <0>        0.04432
     10 H2         -3.3700    0.7427   -2.6246 HC        1 <0>        0.04432
     11 H3         -3.2894    2.2420   -3.5415 HC        1 <0>        0.04432
     12 H4          0.0379   -0.0129    0.0092 HC        1 <0>        0.04344
     13 H5         -0.1318    1.7136   -0.3845 HC        1 <0>        0.04344
     14 H6          1.4697    1.0302   -0.1457 HC        1 <0>        0.04344
     15 H7          2.4274   -0.6206   -1.9031 HC        1 <0>        0.06272
     16 H8          0.9913   -1.6145   -1.7307 HC        1 <0>        0.06272
     17 H9         -1.4283    2.1257   -1.8802 H1        1 <0>        0.02303
     18 H10        -0.7787    2.1072   -3.5403 H1        1 <0>        0.02303
     19 H11         0.4742   -1.3353   -4.1636 H1        1 <0>        0.02825
     20 H12         1.9417   -0.3399   -4.3452 H1        1 <0>        0.02825
     21 H13         1.0115    1.3445   -2.5644 H1        1 <0>        0.03544
     22 H14         2.2742   -2.5287   -4.8484 HO        1 <0>        0.39830
@<TRIPOS>BOND
     1    1    4 1
     2    2    6 1
     3    3    5 1
     4    3    6 1
     5    4    8 1
     6    5    7 1
     7    6    8 1
     8    1    9 1
     9    1   10 1
    10    1   11 1
    11    2   12 1
    12    2   13 1
    13    2   14 1
    14    3   15 1
    15    3   16 1
    16    4   17 1
    17    4   18 1
    18    5   19 1
    19    5   20 1
    20    6   21 1
    21    7   22 1
@<TRIPOS>SUBSTRUCTURE
     1 <0>         1 GROUP 0 A     ****
