@<TRIPOS>MOLECULE
AlkEthOH_r370
   30    30     1     0     0
SMALL
USER_CHARGES

@<TRIPOS>ATOM
      1 C1         -1.0046    2.4323   -0.3935 CT        1 <0>       -0.06963
      2 C2         -1.8513    1.2230   -0.0010 CT        1 <0>       -0.08375
      3 C3          0.4920    2.2388   -0.6342 CT        1 <0>       -0.07095
      4 C4         -1.9875    0.1181   -1.0519 CT        1 <0>       -0.06223
      5 C5          1.2985    1.6623    0.5345 CT        1 <0>       -0.11858
      6 C6         -0.8019   -0.8279   -1.2809 CT        1 <0>       -0.12324
      7 C7          1.5167    0.1470    0.4554 CT        1 <0>        0.34403
      8 C8         -0.1859   -1.5047   -0.0399 CT        1 <0>        0.35188
      9 C9         -1.2389   -2.3102    0.7276 CT        1 <0>       -0.11437
     10 O1          0.3431   -0.5403    0.8727 OS        1 <0>       -0.39471
     11 O2          2.6017   -0.2206    1.3105 OH        1 <0>       -0.59311
     12 O3          0.8180   -2.4177   -0.4991 OH        1 <0>       -0.62159
     13 H1         -1.4374    2.8810   -1.2971 HC        1 <0>        0.03492
     14 H2         -1.1232    3.1873    0.3952 HC        1 <0>        0.03492
     15 H3         -1.5426    0.8302    0.9703 HC        1 <0>        0.05203
     16 H4         -2.8664    1.6069    0.1743 HC        1 <0>        0.05203
     17 H5          0.6705    1.6761   -1.5545 HC        1 <0>        0.03641
     18 H6          0.8965    3.2401   -0.8384 HC        1 <0>        0.03641
     19 H7         -2.8535   -0.4958   -0.7732 HC        1 <0>        0.03697
     20 H8         -2.2548    0.5740   -2.0140 HC        1 <0>        0.03697
     21 H9          2.2852    2.1449    0.5300 HC        1 <0>        0.05811
     22 H10         0.8339    1.9331    1.4904 HC        1 <0>        0.05811
     23 H11        -1.1322   -1.6141   -1.9747 HC        1 <0>        0.04705
     24 H12        -0.0235   -0.3003   -1.8393 HC        1 <0>        0.04705
     25 H13         1.8147   -0.1282   -0.5755 H2        1 <0>        0.04946
     26 H14        -0.7799   -2.7763    1.5961 HC        1 <0>        0.05517
     27 H15        -1.6510   -3.0809    0.0810 HC        1 <0>        0.05517
     28 H16        -2.0377   -1.6485    1.0539 HC        1 <0>        0.05517
     29 H17         3.3782    0.2603    0.9877 HO        1 <0>        0.40028
     30 H18         0.3628   -3.0532   -1.0696 HO        1 <0>        0.41002
@<TRIPOS>BOND
     1    1    2 1
     2    1    3 1
     3    2    4 1
     4    3    5 1
     5    4    6 1
     6    5    7 1
     7    6    8 1
     8    7   10 1
     9    7   11 1
    10    8    9 1
    11    8   10 1
    12    8   12 1
    13    1   13 1
    14    1   14 1
    15    2   15 1
    16    2   16 1
    17    3   17 1
    18    3   18 1
    19    4   19 1
    20    4   20 1
    21    5   21 1
    22    5   22 1
    23    6   23 1
    24    6   24 1
    25    7   25 1
    26    9   26 1
    27    9   27 1
    28    9   28 1
    29   11   29 1
    30   12   30 1
@<TRIPOS>SUBSTRUCTURE
     1 <0>         1 GROUP 0 A     ****
