@<TRIPOS>MOLECULE
AlkEthOH_r361
   39    39     1     0     0
SMALL
USER_CHARGES

@<TRIPOS>ATOM
      1 C1          0.7217    0.5530    2.8291 CT        1 <0>       -0.07298
      2 C2         -0.6306    1.1858    2.4669 CT        1 <0>       -0.07298
      3 C3          1.4219   -0.2694    1.7456 CT        1 <0>       -0.07250
      4 C4         -1.5339    0.3458    1.5540 CT        1 <0>       -0.07250
      5 C5          1.6483    0.4838    0.4315 CT        1 <0>       -0.06624
      6 C6         -1.5657    0.8575    0.1018 CT        1 <0>       -0.06624
      7 C7         -0.0373   -0.9981   -0.9590 CT        1 <0>       -0.05650
      8 C8          1.3780   -0.3291   -0.8657 CT        1 <0>       -0.04220
      9 C9         -1.3822   -0.2021   -1.0113 CT        1 <0>       -0.04220
     10 C10         2.4178   -1.4796   -0.9378 CT        1 <0>       -0.08981
     11 C11         1.6542    0.5935   -2.0672 CT        1 <0>       -0.08981
     12 C12        -2.5312   -1.2411   -0.9117 CT        1 <0>       -0.08981
     13 C13        -1.5611    0.5001   -2.3762 CT        1 <0>       -0.08981
     14 H1          1.3949    1.3473    3.1749 HC        1 <0>        0.03473
     15 H2          0.5691   -0.1061    3.6941 HC        1 <0>        0.03473
     16 H3         -1.1631    1.3660    3.4103 HC        1 <0>        0.03473
     17 H4         -0.4654    2.1820    2.0397 HC        1 <0>        0.03473
     18 H5          2.3987   -0.5837    2.1368 HC        1 <0>        0.03843
     19 H6          0.8697   -1.2003    1.6022 HC        1 <0>        0.03843
     20 H7         -1.2835   -0.7153    1.6257 HC        1 <0>        0.03843
     21 H8         -2.5585    0.4229    1.9425 HC        1 <0>        0.03843
     22 H9          1.0918    1.4218    0.4121 HC        1 <0>        0.03909
     23 H10         2.6983    0.8123    0.4231 HC        1 <0>        0.03909
     24 H11        -2.5453    1.3372   -0.0430 HC        1 <0>        0.03909
     25 H12        -0.8554    1.6734   -0.0554 HC        1 <0>        0.03909
     26 H13        -0.0226   -1.6311   -1.8606 HC        1 <0>        0.03629
     27 H14        -0.1175   -1.7268   -0.1430 HC        1 <0>        0.03629
     28 H15         2.2373   -2.0505   -1.8372 HC        1 <0>        0.03350
     29 H16         2.2992   -2.1055   -0.0651 HC        1 <0>        0.03350
     30 H17         3.4079   -1.0475   -0.9590 HC        1 <0>        0.03350
     31 H18         1.4719    0.0467   -2.9859 HC        1 <0>        0.03350
     32 H19         2.6875    0.9213   -2.0348 HC        1 <0>        0.03350
     33 H20         0.9950    1.4532   -2.0153 HC        1 <0>        0.03350
     34 H21        -2.3975   -1.9776   -1.6910 HC        1 <0>        0.03350
     35 H22        -3.4726   -0.7262   -1.0387 HC        1 <0>        0.03350
     36 H23        -2.4874   -1.7103    0.0607 HC        1 <0>        0.03350
     37 H24        -1.4353   -0.2301   -3.1659 HC        1 <0>        0.03350
     38 H25        -0.8156    1.2797   -2.4704 HC        1 <0>        0.03350
     39 H26        -2.5542    0.9291   -2.4229 HC        1 <0>        0.03350
@<TRIPOS>BOND
     1    1    2 1
     2    1    3 1
     3    2    4 1
     4    3    5 1
     5    4    6 1
     6    5    8 1
     7    6    9 1
     8    7    8 1
     9    7    9 1
    10    8   10 1
    11    8   11 1
    12    9   12 1
    13    9   13 1
    14    1   14 1
    15    1   15 1
    16    2   16 1
    17    2   17 1
    18    3   18 1
    19    3   19 1
    20    4   20 1
    21    4   21 1
    22    5   22 1
    23    5   23 1
    24    6   24 1
    25    6   25 1
    26    7   26 1
    27    7   27 1
    28   10   28 1
    29   10   29 1
    30   10   30 1
    31   11   31 1
    32   11   32 1
    33   11   33 1
    34   12   34 1
    35   12   35 1
    36   12   36 1
    37   13   37 1
    38   13   38 1
    39   13   39 1
@<TRIPOS>SUBSTRUCTURE
     1 <0>         1 GROUP 0 A     ****
