@<TRIPOS>MOLECULE
AlkEthOH_c989
   25    24     1     0     0
SMALL
USER_CHARGES

@<TRIPOS>ATOM
      1 C1         -0.9019    1.0957   -3.2167 CT        1 <0>       -0.08746
      2 C2          1.5587   -1.1883    2.2318 CT        1 <0>       -0.12406
      3 C3         -0.8909   -0.6836    2.0556 CT        1 <0>       -0.12406
      4 C4         -0.0164    0.2341   -2.3262 CT        1 <0>       -0.10624
      5 C5          0.6330   -0.4564    0.0135 CT        1 <0>       -0.10420
      6 C6         -0.3102    0.4210   -0.8307 CT        1 <0>        0.14947
      7 C7          0.5035   -0.3108    1.5479 CT        1 <0>        0.15462
      8 O1         -0.1252    1.7870   -0.4753 OH        1 <0>       -0.59581
      9 O2          0.7702    1.0447    1.9113 OH        1 <0>       -0.60376
     10 H1         -0.7942    2.1585   -2.9811 HC        1 <0>        0.03732
     11 H2         -0.6245    0.9589   -4.2669 HC        1 <0>        0.03732
     12 H3         -1.9555    0.8208   -3.1058 HC        1 <0>        0.03732
     13 H4          2.5646   -0.9338    1.8789 HC        1 <0>        0.04419
     14 H5          1.5626   -1.0253    3.3157 HC        1 <0>        0.04419
     15 H6          1.3825   -2.2522    2.0432 HC        1 <0>        0.04419
     16 H7         -1.6674   -0.0728    1.5844 HC        1 <0>        0.04419
     17 H8         -0.9638   -0.5735    3.1427 HC        1 <0>        0.04419
     18 H9         -1.1108   -1.7375    1.8481 HC        1 <0>        0.04419
     19 H10        -0.1616   -0.8168   -2.6021 HC        1 <0>        0.03756
     20 H11         1.0295    0.4896   -2.5348 HC        1 <0>        0.03756
     21 H12         0.4759   -1.5076   -0.2608 HC        1 <0>        0.05410
     22 H13         1.6649   -0.1966   -0.2612 HC        1 <0>        0.05410
     23 H14        -1.3519    0.1504   -0.6284 H1        1 <0>        0.06209
     24 H15         0.7993    2.0033   -0.6748 HO        1 <0>        0.41441
     25 H16         0.7037    1.0865    2.8769 HO        1 <0>        0.40458
@<TRIPOS>BOND
     1    1    4 1
     2    2    7 1
     3    3    7 1
     4    4    6 1
     5    5    6 1
     6    5    7 1
     7    6    8 1
     8    7    9 1
     9    1   10 1
    10    1   11 1
    11    1   12 1
    12    2   13 1
    13    2   14 1
    14    2   15 1
    15    3   16 1
    16    3   17 1
    17    3   18 1
    18    4   19 1
    19    4   20 1
    20    5   21 1
    21    5   22 1
    22    6   23 1
    23    8   24 1
    24    9   25 1
@<TRIPOS>SUBSTRUCTURE
     1 <0>         1 GROUP 0 A     ****
