@<TRIPOS>MOLECULE
AlkEthOH_c879
   22    21     1     0     0
SMALL
USER_CHARGES

@<TRIPOS>ATOM
      1 C1         -2.6618   -0.0872    2.1679 CT        1 <0>       -0.12575
      2 C2          2.2008    1.7413   -1.3240 CT        1 <0>       -0.12575
      3 C3         -2.4795   -0.1218    0.6581 CT        1 <0>        0.34093
      4 C4          0.7699    1.4121   -0.9295 CT        1 <0>        0.34093
      5 C5         -0.7980   -0.4046   -1.0155 CT        1 <0>        0.53742
      6 O1         -3.3338   -1.1123    0.0939 OH        1 <0>       -0.62309
      7 O2         -0.0761    2.3556   -1.5768 OH        1 <0>       -0.62309
      8 O3         -1.0423   -1.7064   -1.5527 OH        1 <0>       -0.59288
      9 O4         -1.1009   -0.3774    0.3827 OS        1 <0>       -0.48991
     10 O5          0.5153    0.0691   -1.3426 OS        1 <0>       -0.48991
     11 H1         -2.3827   -1.0457    2.6167 HC        1 <0>        0.05645
     12 H2         -3.7098    0.1003    2.4277 HC        1 <0>        0.05645
     13 H3         -2.0630    0.7114    2.6169 HC        1 <0>        0.05645
     14 H4          2.3347    1.6454   -2.4076 HC        1 <0>        0.05645
     15 H5          2.9067    1.0556   -0.8449 HC        1 <0>        0.05645
     16 H6          2.4560    2.7705   -1.0526 HC        1 <0>        0.05645
     17 H7         -2.7672    0.8505    0.2431 H2        1 <0>        0.07517
     18 H8          0.6689    1.5170    0.1569 H2        1 <0>        0.07517
     19 H9         -1.4937    0.2687   -1.5299 H3        1 <0>        0.11079
     20 H10        -4.2525   -0.8826    0.3117 HO        1 <0>        0.41137
     21 H11         0.1878    3.2376   -1.2646 HO        1 <0>        0.41137
     22 H12        -1.9823   -1.9111   -1.4130 HO        1 <0>        0.42853
@<TRIPOS>BOND
     1    1    3 1
     2    2    4 1
     3    3    6 1
     4    3    9 1
     5    4    7 1
     6    4   10 1
     7    5    8 1
     8    5    9 1
     9    5   10 1
    10    1   11 1
    11    1   12 1
    12    1   13 1
    13    2   14 1
    14    2   15 1
    15    2   16 1
    16    3   17 1
    17    4   18 1
    18    5   19 1
    19    6   20 1
    20    7   21 1
    21    8   22 1
@<TRIPOS>SUBSTRUCTURE
     1 <0>         1 GROUP 0 A     ****
