@<TRIPOS>MOLECULE
AlkEthOH_c610
   30    29     1     0     0
SMALL
USER_CHARGES

@<TRIPOS>ATOM
      1 C1          0.0944    0.5300   -1.9950 CT        1 <0>       -0.08869
      2 C2          0.3907    3.3264   -0.7755 CT        1 <0>       -0.13196
      3 C3         -0.2660   -2.6735   -0.5195 CT        1 <0>       -0.08670
      4 C4          1.5093   -1.3600    0.6425 CT        1 <0>       -0.08670
      5 C5         -0.4443   -2.2135    1.9385 CT        1 <0>       -0.08670
      6 C6         -0.7265   -0.2918    0.2579 CT        1 <0>       -0.06369
      7 C7          0.1133    0.7874   -0.4801 CT        1 <0>       -0.05271
      8 C8         -0.4158    2.2020   -0.1349 CT        1 <0>        0.13986
      9 C9         -0.0080   -1.6332    0.5859 CT        1 <0>       -0.05337
     10 O1         -1.7786    2.3230   -0.5364 OH        1 <0>       -0.59907
     11 H1         -0.9238    0.5628   -2.3968 HC        1 <0>        0.03788
     12 H2          0.6931    1.2745   -2.5288 HC        1 <0>        0.03788
     13 H3          0.5142   -0.4487   -2.2416 HC        1 <0>        0.03788
     14 H4          0.3758    3.2241   -1.8665 HC        1 <0>        0.04258
     15 H5         -0.0177    4.3079   -0.5173 HC        1 <0>        0.04258
     16 H6          1.4445    3.2861   -0.4821 HC        1 <0>        0.04258
     17 H7         -1.3338   -2.9051   -0.6026 HC        1 <0>        0.03332
     18 H8          0.0684   -2.3017   -1.4950 HC        1 <0>        0.03332
     19 H9          0.2659   -3.6115   -0.3331 HC        1 <0>        0.03332
     20 H10         1.7526   -0.6227    1.4161 HC        1 <0>        0.03332
     21 H11         1.8772   -0.9711   -0.3136 HC        1 <0>        0.03332
     22 H12         2.0686   -2.2748    0.8689 HC        1 <0>        0.03332
     23 H13        -0.2731   -1.4951    2.7486 HC        1 <0>        0.03332
     24 H14        -1.5120   -2.4586    1.9370 HC        1 <0>        0.03332
     25 H15         0.1153   -3.1199    2.1909 HC        1 <0>        0.03332
     26 H16        -1.6326   -0.5033   -0.3264 HC        1 <0>        0.04762
     27 H17        -1.0879    0.1202    1.2104 HC        1 <0>        0.04762
     28 H18         1.1555    0.7404   -0.1473 HC        1 <0>        0.04986
     29 H19        -0.3810    2.3330    0.9537 H1        1 <0>        0.02675
     30 H20        -2.0809    3.1909   -0.2272 HO        1 <0>        0.39662
@<TRIPOS>BOND
     1    1    7 1
     2    2    8 1
     3    3    9 1
     4    4    9 1
     5    5    9 1
     6    6    7 1
     7    6    9 1
     8    7    8 1
     9    8   10 1
    10    1   11 1
    11    1   12 1
    12    1   13 1
    13    2   14 1
    14    2   15 1
    15    2   16 1
    16    3   17 1
    17    3   18 1
    18    3   19 1
    19    4   20 1
    20    4   21 1
    21    4   22 1
    22    5   23 1
    23    5   24 1
    24    5   25 1
    25    6   26 1
    26    6   27 1
    27    7   28 1
    28    8   29 1
    29   10   30 1
@<TRIPOS>SUBSTRUCTURE
     1 <0>         1 GROUP 0 A     ****
