@<TRIPOS>MOLECULE
AlkEthOH_r378
   33    33     1     0     0
SMALL
USER_CHARGES

@<TRIPOS>ATOM
      1 C1          1.1738    1.9799   -0.7646 CT        1 <0>       -0.07378
      2 C2          0.3526    1.4231   -1.9322 CT        1 <0>       -0.07378
      3 C3          0.3403    2.4335    0.4413 CT        1 <0>       -0.07275
      4 C4          0.7565    0.0118   -2.3790 CT        1 <0>       -0.07275
      5 C5         -0.6176    1.3955    1.0387 CT        1 <0>       -0.07282
      6 C6          0.7625   -1.0725   -1.2944 CT        1 <0>       -0.07282
      7 C7          0.0628    0.1043    1.5153 CT        1 <0>       -0.06512
      8 C8         -0.5867   -1.2724   -0.5896 CT        1 <0>       -0.06512
      9 C9         -0.5462   -1.2177    0.9649 CT        1 <0>       -0.04870
     10 C10         0.2890   -2.3987    1.5056 CT        1 <0>       -0.08833
     11 C11        -1.9870   -1.3869    1.4940 CT        1 <0>       -0.08833
     12 H1          1.9482    1.2781   -0.4421 HC        1 <0>        0.03762
     13 H2          1.7260    2.8580   -1.1256 HC        1 <0>        0.03762
     14 H3         -0.7210    1.4582   -1.7262 HC        1 <0>        0.03762
     15 H4          0.4932    2.0885   -2.7946 HC        1 <0>        0.03762
     16 H5          1.0264    2.7762    1.2259 HC        1 <0>        0.03464
     17 H6         -0.2494    3.3113    0.1478 HC        1 <0>        0.03464
     18 H7          0.0834   -0.2997   -3.1879 HC        1 <0>        0.03464
     19 H8          1.7607    0.0584   -2.8195 HC        1 <0>        0.03464
     20 H9         -1.1074    1.8607    1.9046 HC        1 <0>        0.03793
     21 H10        -1.4277    1.1977    0.3327 HC        1 <0>        0.03793
     22 H11         1.0362   -2.0195   -1.7785 HC        1 <0>        0.03793
     23 H12         1.5718   -0.8768   -0.5870 HC        1 <0>        0.03793
     24 H13         1.1381    0.1357    1.3115 HC        1 <0>        0.03857
     25 H14        -0.0034    0.0817    2.6126 HC        1 <0>        0.03857
     26 H15        -1.3308   -0.5657   -0.9709 HC        1 <0>        0.03857
     27 H16        -0.9728   -2.2576   -0.8883 HC        1 <0>        0.03857
     28 H17        -0.1262   -3.3254    1.1286 HC        1 <0>        0.03321
     29 H18         0.2513   -2.3902    2.5881 HC        1 <0>        0.03321
     30 H19         1.3130   -2.2887    1.1701 HC        1 <0>        0.03321
     31 H20        -2.3993   -2.3096    1.1042 HC        1 <0>        0.03321
     32 H21        -2.5846   -0.5462    1.1633 HC        1 <0>        0.03321
     33 H22        -1.9630   -1.4207    2.5764 HC        1 <0>        0.03321
@<TRIPOS>BOND
     1    1    2 1
     2    1    3 1
     3    2    4 1
     4    3    5 1
     5    4    6 1
     6    5    7 1
     7    6    8 1
     8    7    9 1
     9    8    9 1
    10    9   10 1
    11    9   11 1
    12    1   12 1
    13    1   13 1
    14    2   14 1
    15    2   15 1
    16    3   16 1
    17    3   17 1
    18    4   18 1
    19    4   19 1
    20    5   20 1
    21    5   21 1
    22    6   22 1
    23    6   23 1
    24    7   24 1
    25    7   25 1
    26    8   26 1
    27    8   27 1
    28   10   28 1
    29   10   29 1
    30   10   30 1
    31   11   31 1
    32   11   32 1
    33   11   33 1
@<TRIPOS>SUBSTRUCTURE
     1 <0>         1 GROUP 0 A     ****
