@<TRIPOS>MOLECULE
AlkEthOH_r750
   17    17     1     0     0
SMALL
USER_CHARGES

@<TRIPOS>ATOM
      1 C1         -0.7513    0.7901   -0.1106 CT        1 <0>       -0.10787
      2 C2         -2.0615    0.3355    0.4987 CT        1 <0>        0.12561
      3 C3         -1.1200    0.9530   -1.5664 CT        1 <0>        0.11189
      4 C4         -2.1341   -0.1613   -1.7882 CT        1 <0>        0.10158
      5 C5         -1.4919   -1.4603   -2.2563 CT        1 <0>       -0.10868
      6 O1         -2.7524   -0.4124   -0.5103 OS        1 <0>       -0.42258
      7 O2         -1.7724    2.2072   -1.7515 OH        1 <0>       -0.58866
      8 H1         -0.3781    1.7019    0.3641 HC        1 <0>        0.06662
      9 H2          0.0002    0.0002    0.0009 HC        1 <0>        0.06662
     10 H3         -1.9174   -0.2882    1.3854 H1        1 <0>        0.05269
     11 H4         -2.6906    1.1893    0.7725 H1        1 <0>        0.05269
     12 H5         -0.2613    0.9148   -2.2423 H1        1 <0>        0.05009
     13 H6         -2.9233    0.1327   -2.4889 H1        1 <0>        0.06278
     14 H7         -0.7050   -1.7591   -1.5632 HC        1 <0>        0.04454
     15 H8         -1.0573   -1.3263   -3.2472 HC        1 <0>        0.04454
     16 H9         -2.2406   -2.2516   -2.3030 HC        1 <0>        0.04454
     17 H10        -1.9895    2.2686   -2.6945 HO        1 <0>        0.40360
@<TRIPOS>BOND
     1    1    2 1
     2    1    3 1
     3    2    6 1
     4    3    4 1
     5    3    7 1
     6    4    5 1
     7    4    6 1
     8    1    8 1
     9    1    9 1
    10    2   10 1
    11    2   11 1
    12    3   12 1
    13    4   13 1
    14    5   14 1
    15    5   15 1
    16    5   16 1
    17    7   17 1
@<TRIPOS>SUBSTRUCTURE
     1 <0>         1 GROUP 0 A     ****
