@<TRIPOS>MOLECULE
AlkEthOH_r614
   21    21     1     0     0
SMALL
USER_CHARGES

@<TRIPOS>ATOM
      1 C1         -0.3525   -1.0406    1.3034 CT        1 <0>       -0.14772
      2 C2          1.1561   -1.2332    1.2697 CT        1 <0>        0.13115
      3 C3          1.4299    0.2520   -0.5673 CT        1 <0>        0.09440
      4 C4         -0.8690   -0.6516   -0.0809 CT        1 <0>        0.15710
      5 C5         -0.0758    0.5301   -0.6666 CT        1 <0>        0.12765
      6 C6         -0.4804    0.8155   -2.1128 CT        1 <0>       -0.12158
      7 O1          1.8051   -0.0617    0.7781 OS        1 <0>       -0.40243
      8 O2         -2.2534   -0.3290   -0.0041 OH        1 <0>       -0.57839
      9 O3         -0.3601    1.7186    0.0805 OH        1 <0>       -0.56661
     10 H1         -0.8527   -1.9496    1.6565 HC        1 <0>        0.06593
     11 H2         -0.6091   -0.2502    2.0203 HC        1 <0>        0.06593
     12 H3          1.5297   -1.4216    2.2812 H1        1 <0>        0.04777
     13 H4          1.4355   -2.0926    0.6491 H1        1 <0>        0.04777
     14 H5          1.7353   -0.5706   -1.2249 H1        1 <0>        0.05277
     15 H6          2.0035    1.1415   -0.8502 H1        1 <0>        0.05277
     16 H7         -0.7697   -1.5197   -0.7475 H1        1 <0>        0.02992
     17 H8         -1.5498    1.0100   -2.1632 HC        1 <0>        0.04891
     18 H9         -0.2428   -0.0437   -2.7367 HC        1 <0>        0.04891
     19 H10         0.0598    1.6856   -2.4801 HC        1 <0>        0.04891
     20 H11        -2.7061   -1.1232    0.3210 HO        1 <0>        0.39899
     21 H12         0.1619    2.4239   -0.3277 HO        1 <0>        0.39785
@<TRIPOS>BOND
     1    1    2 1
     2    1    4 1
     3    2    7 1
     4    3    5 1
     5    3    7 1
     6    4    5 1
     7    4    8 1
     8    5    6 1
     9    5    9 1
    10    1   10 1
    11    1   11 1
    12    2   12 1
    13    2   13 1
    14    3   14 1
    15    3   15 1
    16    4   16 1
    17    6   17 1
    18    6   18 1
    19    6   19 1
    20    8   20 1
    21    9   21 1
@<TRIPOS>SUBSTRUCTURE
     1 <0>         1 GROUP 0 A     ****
