@<TRIPOS>MOLECULE
AlkEthOH_c225
   25    24     1     0     0
SMALL
USER_CHARGES

@<TRIPOS>ATOM
      1 C1          1.0540   -0.0053   -0.3017 CT        1 <0>       -0.08653
      2 C2          0.3117   -0.3235   -2.6461 CT        1 <0>       -0.08653
      3 C3          3.2751   -1.0248   -2.2212 CT        1 <0>       -0.12443
      4 C4          3.7066    1.2758   -1.3789 CT        1 <0>       -0.12443
      5 C5          0.7393    2.0055   -1.7826 CT        1 <0>        0.13316
      6 C6          1.2340    0.5354   -1.7436 CT        1 <0>       -0.03118
      7 C7          2.7410    0.4181   -2.2137 CT        1 <0>        0.15994
      8 O1         -0.6384    2.0957   -1.4309 OH        1 <0>       -0.60542
      9 O2          2.8591    0.9158   -3.5566 OH        1 <0>       -0.60259
     10 H1          1.6708    0.5423    0.4180 HC        1 <0>        0.04180
     11 H2          1.3468   -1.0593   -0.2291 HC        1 <0>        0.04180
     12 H3          0.0113    0.0563    0.0253 HC        1 <0>        0.04180
     13 H4          0.3705   -0.0137   -3.6943 HC        1 <0>        0.04180
     14 H5          0.5702   -1.3863   -2.5909 HC        1 <0>        0.04180
     15 H6         -0.7394   -0.2339   -2.3476 HC        1 <0>        0.04180
     16 H7          2.6377   -1.7000   -2.7989 HC        1 <0>        0.04266
     17 H8          4.2948   -1.0789   -2.6148 HC        1 <0>        0.04266
     18 H9          3.3369   -1.4159   -1.1980 HC        1 <0>        0.04266
     19 H10         3.3943    2.3222   -1.3249 HC        1 <0>        0.04266
     20 H11         3.7684    0.8941   -0.3520 HC        1 <0>        0.04266
     21 H12         4.7291    1.2297   -1.7665 HC        1 <0>        0.04266
     22 H13         0.8462    2.4335   -2.7836 H1        1 <0>        0.03238
     23 H14         1.2968    2.6290   -1.0774 H1        1 <0>        0.03238
     24 H15        -0.8746    3.0353   -1.4768 HO        1 <0>        0.39843
     25 H16         3.8002    0.8735   -3.7724 HO        1 <0>        0.39806
@<TRIPOS>BOND
     1    1    6 1
     2    2    6 1
     3    3    7 1
     4    4    7 1
     5    5    6 1
     6    5    8 1
     7    6    7 1
     8    7    9 1
     9    1   10 1
    10    1   11 1
    11    1   12 1
    12    2   13 1
    13    2   14 1
    14    2   15 1
    15    3   16 1
    16    3   17 1
    17    3   18 1
    18    4   19 1
    19    4   20 1
    20    4   21 1
    21    5   22 1
    22    5   23 1
    23    8   24 1
    24    9   25 1
@<TRIPOS>SUBSTRUCTURE
     1 <0>         1 GROUP 0 A     ****
