@<TRIPOS>MOLECULE
AlkEthOH_c21
   18    17     1     0     0
SMALL
USER_CHARGES

@<TRIPOS>ATOM
      1 C1         -0.6265    0.4832   -1.1922 CT        1 <0>       -0.11271
      2 C2          0.0041   -0.7358   -1.8527 CT        1 <0>        0.13715
      3 C3          1.1924    0.4904    2.0333 CT        1 <0>        0.33474
      4 C4         -0.4707    0.4802    0.3280 CT        1 <0>        0.34264
      5 O1         -0.1756   -0.6387   -3.2592 OH        1 <0>       -0.60542
      6 O2          0.7640   -0.6999    2.6790 OH        1 <0>       -0.63696
      7 O3         -1.1359    1.6400    0.8220 OH        1 <0>       -0.63169
      8 O4          0.9237    0.4919    0.6351 OS        1 <0>       -0.41735
      9 H1         -1.6886    0.5456   -1.4620 HC        1 <0>        0.06764
     10 H2         -0.1725    1.3904   -1.6129 HC        1 <0>        0.06764
     11 H3          1.0771   -0.7894   -1.6450 H1        1 <0>        0.03239
     12 H4         -0.4732   -1.6573   -1.5045 H1        1 <0>        0.03239
     13 H5          0.7608    1.3670    2.5289 H2        1 <0>        0.05122
     14 H6          2.2783    0.5475    2.1515 H2        1 <0>        0.05122
     15 H7         -0.9544   -0.4138    0.7396 H2        1 <0>        0.05720
     16 H8          0.2355   -1.4271   -3.6492 HO        1 <0>        0.40170
     17 H9          0.9860   -0.6131    3.6214 HO        1 <0>        0.41362
     18 H10        -2.0688    1.5719    0.5573 HO        1 <0>        0.41458
@<TRIPOS>BOND
     1    1    2 1
     2    1    4 1
     3    2    5 1
     4    3    6 1
     5    3    8 1
     6    4    7 1
     7    4    8 1
     8    1    9 1
     9    1   10 1
    10    2   11 1
    11    2   12 1
    12    3   13 1
    13    3   14 1
    14    4   15 1
    15    5   16 1
    16    6   17 1
    17    7   18 1
@<TRIPOS>SUBSTRUCTURE
     1 <0>         1 GROUP 0 A     ****
