@<TRIPOS>MOLECULE
AlkEthOH_r705
   31    31     1     0     0
SMALL
USER_CHARGES

@<TRIPOS>ATOM
      1 C1         -0.8004    2.1298    1.6368 CT        1 <0>       -0.07806
      2 C2         -0.6418    2.7281    0.2269 CT        1 <0>       -0.08470
      3 C3         -0.9717    0.6136    1.6798 CT        1 <0>        0.13524
      4 C4          0.2406    1.9217   -0.7247 CT        1 <0>        0.15290
      5 C5          0.3172   -1.2720    0.8533 CT        1 <0>        0.37034
      6 C6          0.1030   -0.3970   -1.4655 CT        1 <0>        0.55132
      7 C7          1.7813   -1.7279    0.8340 CT        1 <0>       -0.11203
      8 C8         -0.4665   -2.2637    1.7264 CT        1 <0>       -0.11203
      9 C9         -0.5747   -0.9532   -2.7291 CT        1 <0>       -0.09706
     10 O1          0.3048    0.0299    1.4364 OS        1 <0>       -0.44560
     11 O2         -0.5452    0.8677   -1.2717 OS        1 <0>       -0.44158
     12 O3         -0.2473   -1.3649   -0.4596 OS        1 <0>       -0.50839
     13 O4          1.5007   -0.3120   -1.7431 OH        1 <0>       -0.63310
     14 H1          0.0862    2.4041    2.2229 HC        1 <0>        0.04776
     15 H2         -1.6629    2.6075    2.1161 HC        1 <0>        0.04776
     16 H3         -1.6411    2.8361   -0.2135 HC        1 <0>        0.04827
     17 H4         -0.2273    3.7374    0.3358 HC        1 <0>        0.04827
     18 H5         -1.2965    0.3109    2.6808 H1        1 <0>        0.04208
     19 H6         -1.7265    0.2884    0.9562 H1        1 <0>        0.04208
     20 H7          0.5495    2.5561   -1.5622 H1        1 <0>        0.05391
     21 H8          1.1449    1.5843   -0.2125 H1        1 <0>        0.05391
     22 H9          2.3660   -1.0456    0.2228 HC        1 <0>        0.05244
     23 H10         1.8440   -2.7299    0.4180 HC        1 <0>        0.05244
     24 H11         2.1736   -1.7320    1.8475 HC        1 <0>        0.05244
     25 H12        -1.5095   -1.9659    1.7590 HC        1 <0>        0.05244
     26 H13        -0.0546   -2.2604    2.7303 HC        1 <0>        0.05244
     27 H14        -0.3840   -3.2586    1.3010 HC        1 <0>        0.05244
     28 H15        -0.1500   -1.9234   -2.9664 HC        1 <0>        0.05951
     29 H16        -0.4080   -0.2700   -3.5557 HC        1 <0>        0.05951
     30 H17        -1.6401   -1.0554   -2.5492 HC        1 <0>        0.05951
     31 H18         1.7972   -1.2124   -1.9479 HO        1 <0>        0.42554
@<TRIPOS>BOND
     1    1    2 1
     2    1    3 1
     3    2    4 1
     4    3   10 1
     5    4   11 1
     6    5    7 1
     7    5    8 1
     8    5   10 1
     9    5   12 1
    10    6    9 1
    11    6   11 1
    12    6   12 1
    13    6   13 1
    14    1   14 1
    15    1   15 1
    16    2   16 1
    17    2   17 1
    18    3   18 1
    19    3   19 1
    20    4   20 1
    21    4   21 1
    22    7   22 1
    23    7   23 1
    24    7   24 1
    25    8   25 1
    26    8   26 1
    27    8   27 1
    28    9   28 1
    29    9   29 1
    30    9   30 1
    31   13   31 1
@<TRIPOS>SUBSTRUCTURE
     1 <0>         1 GROUP 0 A     ****
