@<TRIPOS>MOLECULE
AlkEthOH_c341
   22    21     1     0     0
SMALL
USER_CHARGES

@<TRIPOS>ATOM
      1 C1          0.4532    1.7960   -0.6359 CT        1 <0>       -0.08936
      2 C2          2.1324    0.0126   -1.1255 CT        1 <0>       -0.08936
      3 C3         -1.5104   -0.4211    0.3031 CT        1 <0>       -0.12209
      4 C4         -1.3426   -0.4385    1.8167 CT        1 <0>        0.13671
      5 C5          0.8969    0.3715   -0.2903 CT        1 <0>       -0.05523
      6 C6         -0.2206   -0.6761   -0.4951 CT        1 <0>        0.14921
      7 O1         -2.5868   -0.1728    2.4471 OH        1 <0>       -0.60272
      8 O2         -0.5631   -0.7318   -1.8824 OH        1 <0>       -0.59825
      9 H1          0.1347    1.8572   -1.6824 HC        1 <0>        0.03885
     10 H2          1.2714    2.5104   -0.5053 HC        1 <0>        0.03885
     11 H3         -0.3864    2.1199   -0.0121 HC        1 <0>        0.03885
     12 H4          1.9091    0.0043   -2.1976 HC        1 <0>        0.03885
     13 H5          2.9362    0.7374   -0.9570 HC        1 <0>        0.03885
     14 H6          2.5142   -0.9758   -0.8490 HC        1 <0>        0.03885
     15 H7         -1.9718    0.5231   -0.0096 HC        1 <0>        0.06171
     16 H8         -2.2314   -1.2013    0.0233 HC        1 <0>        0.06171
     17 H9         -0.6310    0.3366    2.1197 H1        1 <0>        0.02380
     18 H10        -0.9649   -1.4034    2.1677 H1        1 <0>        0.02380
     19 H11         1.2056    0.3573    0.7618 HC        1 <0>        0.04081
     20 H12         0.1739   -1.6642   -0.2278 H1        1 <0>        0.02691
     21 H13        -2.4275   -0.1949    3.4050 HO        1 <0>        0.40036
     22 H14        -1.1932   -1.4611   -1.9773 HO        1 <0>        0.39889
@<TRIPOS>BOND
     1    1    5 1
     2    2    5 1
     3    3    4 1
     4    3    6 1
     5    4    7 1
     6    5    6 1
     7    6    8 1
     8    1    9 1
     9    1   10 1
    10    1   11 1
    11    2   12 1
    12    2   13 1
    13    2   14 1
    14    3   15 1
    15    3   16 1
    16    4   17 1
    17    4   18 1
    18    5   19 1
    19    6   20 1
    20    7   21 1
    21    8   22 1
@<TRIPOS>SUBSTRUCTURE
     1 <0>         1 GROUP 0 A     ****
