@<TRIPOS>MOLECULE
AlkEthOH_r566
   26    26     1     0     0
SMALL
USER_CHARGES

@<TRIPOS>ATOM
      1 C1         -0.3560    0.0374   -1.3808 CT        1 <0>       -0.10268
      2 C2         -1.7297    0.2893   -0.7487 CT        1 <0>        0.13378
      3 C3         -0.9730    1.8419    0.9140 CT        1 <0>        0.09392
      4 C4          0.2819    1.4974    1.7082 CT        1 <0>        0.10938
      5 C5          0.8530   -0.6399    0.8008 CT        1 <0>        0.13216
      6 C6          0.5648   -0.9939   -0.6757 CT        1 <0>       -0.06373
      7 C7         -0.0529   -2.4018   -0.7372 CT        1 <0>       -0.08862
      8 C8          1.9026   -1.0192   -1.4486 CT        1 <0>       -0.08862
      9 O1         -1.7047    0.6536    0.6270 OS        1 <0>       -0.42349
     10 O2          1.2140    0.7352    0.9410 OS        1 <0>       -0.41834
     11 H1         -0.5238   -0.2818   -2.4186 HC        1 <0>        0.05152
     12 H2          0.1789    0.9925   -1.4568 HC        1 <0>        0.05152
     13 H3         -2.2571    1.0710   -1.3087 H1        1 <0>        0.04459
     14 H4         -2.3431   -0.6141   -0.8290 H1        1 <0>        0.04459
     15 H5         -1.6186    2.4763    1.5303 H1        1 <0>        0.04937
     16 H6         -0.7314    2.4034    0.0050 H1        1 <0>        0.04937
     17 H7          0.7873    2.4264    1.9916 H1        1 <0>        0.05359
     18 H8          0.0382    0.9606    2.6327 H1        1 <0>        0.05359
     19 H9          0.0105   -0.9087    1.4495 H1        1 <0>        0.04925
     20 H10         1.7034   -1.2296    1.1645 H1        1 <0>        0.04925
     21 H11         0.6071   -3.1041   -0.2390 HC        1 <0>        0.03660
     22 H12        -0.1792   -2.6920   -1.7749 HC        1 <0>        0.03660
     23 H13        -1.0175   -2.3911   -0.2405 HC        1 <0>        0.03660
     24 H14         2.5670   -1.7326   -0.9773 HC        1 <0>        0.03660
     25 H15         2.3422   -0.0300   -1.4221 HC        1 <0>        0.03660
     26 H16         1.7106   -1.3123   -2.4732 HC        1 <0>        0.03660
@<TRIPOS>BOND
     1    1    2 1
     2    1    6 1
     3    2    9 1
     4    3    4 1
     5    3    9 1
     6    4   10 1
     7    5    6 1
     8    5   10 1
     9    6    7 1
    10    6    8 1
    11    1   11 1
    12    1   12 1
    13    2   13 1
    14    2   14 1
    15    3   15 1
    16    3   16 1
    17    4   17 1
    18    4   18 1
    19    5   19 1
    20    5   20 1
    21    7   21 1
    22    7   22 1
    23    7   23 1
    24    8   24 1
    25    8   25 1
    26    8   26 1
@<TRIPOS>SUBSTRUCTURE
     1 <0>         1 GROUP 0 A     ****
