@<TRIPOS>MOLECULE
AlkEthOH_r615
   30    30     1     0     0
SMALL
USER_CHARGES

@<TRIPOS>ATOM
      1 C1          1.8826   -0.2888   -1.2290 CT        1 <0>       -0.10539
      2 C2          1.1679    1.0400   -0.9636 CT        1 <0>       -0.12379
      3 C3          2.3307   -1.0195    0.0359 CT        1 <0>        0.13411
      4 C4          0.5415   -0.6056    1.5649 CT        1 <0>        0.10453
      5 C5         -0.8846   -0.4244    1.0282 CT        1 <0>        0.15440
      6 C6         -0.3722    0.9892   -0.9860 CT        1 <0>        0.35640
      7 C7         -1.6514   -1.7528    1.1859 CT        1 <0>       -0.09801
      8 C8         -1.6273    0.6434    1.8408 CT        1 <0>       -0.09801
      9 C9         -0.8521    0.9383   -2.4473 CT        1 <0>       -0.11843
     10 O1          1.2482   -1.5624    0.7810 OS        1 <0>       -0.40928
     11 O2         -0.9325   -0.1733   -0.3785 OS        1 <0>       -0.40514
     12 O3         -0.8507    2.2160   -0.4322 OH        1 <0>       -0.62417
     13 H1          1.2570   -0.9517   -1.8359 HC        1 <0>        0.05618
     14 H2          2.7834   -0.0739   -1.8173 HC        1 <0>        0.05618
     15 H3          1.5263    1.4916   -0.0319 HC        1 <0>        0.04801
     16 H4          1.4908    1.7630   -1.7268 HC        1 <0>        0.04801
     17 H5          2.9517   -1.8703   -0.2661 H1        1 <0>        0.04385
     18 H6          2.9597   -0.3859    0.6727 H1        1 <0>        0.04385
     19 H7          1.0801    0.3432    1.6406 H1        1 <0>        0.04713
     20 H8          0.5009   -1.0004    2.5876 H1        1 <0>        0.04713
     21 H9         -2.6593   -1.6274    0.8074 HC        1 <0>        0.04698
     22 H10        -1.6832   -2.0212    2.2355 HC        1 <0>        0.04698
     23 H11        -1.1405   -2.5259    0.6235 HC        1 <0>        0.04698
     24 H12        -2.6344    0.7611    1.4502 HC        1 <0>        0.04698
     25 H13        -1.0977    1.5893    1.7663 HC        1 <0>        0.04698
     26 H14        -1.6767    0.3374    2.8823 HC        1 <0>        0.04698
     27 H15        -1.9362    0.9024   -2.4664 HC        1 <0>        0.05155
     28 H16        -0.4484    0.0521   -2.9254 HC        1 <0>        0.05155
     29 H17        -0.5062    1.8249   -2.9682 HC        1 <0>        0.05155
     30 H18        -0.5044    2.9234   -0.9964 HO        1 <0>        0.40591
@<TRIPOS>BOND
     1    1    2 1
     2    1    3 1
     3    2    6 1
     4    3   10 1
     5    4    5 1
     6    4   10 1
     7    5    7 1
     8    5    8 1
     9    5   11 1
    10    6    9 1
    11    6   11 1
    12    6   12 1
    13    1   13 1
    14    1   14 1
    15    2   15 1
    16    2   16 1
    17    3   17 1
    18    3   18 1
    19    4   19 1
    20    4   20 1
    21    7   21 1
    22    7   22 1
    23    7   23 1
    24    8   24 1
    25    8   25 1
    26    8   26 1
    27    9   27 1
    28    9   28 1
    29    9   29 1
    30   12   30 1
@<TRIPOS>SUBSTRUCTURE
     1 <0>         1 GROUP 0 A     ****
