@<TRIPOS>MOLECULE
AlkEthOH_r547
   30    30     1     0     0
SMALL
USER_CHARGES

@<TRIPOS>ATOM
      1 C1          0.8353    0.0359   -1.9514 CT        1 <0>       -0.13608
      2 C2          0.0637   -1.1681    1.3501 CT        1 <0>       -0.13608
      3 C3         -0.7871    0.8571   -0.1034 CT        1 <0>       -0.05091
      4 C4          0.9449   -1.4085   -1.4723 CT        1 <0>        0.13711
      5 C5         -0.3093   -2.2724    0.3647 CT        1 <0>        0.13711
      6 C6          0.5470    1.0996   -0.8639 CT        1 <0>        0.17136
      7 C7         -0.7537    0.1353    1.2674 CT        1 <0>        0.17136
      8 C8          0.4862    2.4694   -1.5666 CT        1 <0>       -0.12833
      9 C9         -2.1984   -0.1062    1.7334 CT        1 <0>       -0.12833
     10 O1         -0.3187   -1.8472   -0.9898 OS        1 <0>       -0.42343
     11 O2          1.6592    1.1497    0.0262 OH        1 <0>       -0.58332
     12 O3         -0.1691    1.0553    2.2056 OH        1 <0>       -0.58332
     13 H1          1.7828    0.2836   -2.4476 HC        1 <0>        0.05514
     14 H2          0.0449    0.0882   -2.7122 HC        1 <0>        0.05514
     15 H3         -0.0178   -1.5755    2.3676 HC        1 <0>        0.05514
     16 H4          1.1292   -0.9321    1.2552 HC        1 <0>        0.05514
     17 H5         -1.2348    1.8439    0.0883 HC        1 <0>        0.06203
     18 H6         -1.4996    0.3653   -0.7786 HC        1 <0>        0.06203
     19 H7          1.1941   -2.0435   -2.3298 H1        1 <0>        0.04338
     20 H8          1.7540   -1.5333   -0.7450 H1        1 <0>        0.04338
     21 H9          0.3759   -3.1220    0.4705 H1        1 <0>        0.04338
     22 H10        -1.3115   -2.6497    0.5921 H1        1 <0>        0.04338
     23 H11         0.2850    3.2387   -0.8294 HC        1 <0>        0.04239
     24 H12        -0.3058    2.4545   -2.3070 HC        1 <0>        0.04239
     25 H13         1.4372    2.6638   -2.0498 HC        1 <0>        0.04239
     26 H14        -2.7570    0.8222    1.6678 HC        1 <0>        0.04239
     27 H15        -2.1907   -0.4549    2.7613 HC        1 <0>        0.04239
     28 H16        -2.6603   -0.8552    1.0978 HC        1 <0>        0.04239
     29 H17         2.4305    1.3921   -0.5092 HO        1 <0>        0.39019
     30 H18        -0.2403    0.6301    3.0702 HO        1 <0>        0.39019
@<TRIPOS>BOND
     1    1    4 1
     2    1    6 1
     3    2    5 1
     4    2    7 1
     5    3    6 1
     6    3    7 1
     7    4   10 1
     8    5   10 1
     9    6    8 1
    10    6   11 1
    11    7    9 1
    12    7   12 1
    13    1   13 1
    14    1   14 1
    15    2   15 1
    16    2   16 1
    17    3   17 1
    18    3   18 1
    19    4   19 1
    20    4   20 1
    21    5   21 1
    22    5   22 1
    23    8   23 1
    24    8   24 1
    25    8   25 1
    26    9   26 1
    27    9   27 1
    28    9   28 1
    29   11   29 1
    30   12   30 1
@<TRIPOS>SUBSTRUCTURE
     1 <0>         1 GROUP 0 A     ****
