@<TRIPOS>MOLECULE
AlkEthOH_r586
   21    21     1     0     0
SMALL
USER_CHARGES

@<TRIPOS>ATOM
      1 C1          0.3902    0.5959    1.2472 CT        1 <0>       -0.13842
      2 C2          0.3770   -0.9112    1.4803 CT        1 <0>        0.14497
      3 C3         -0.7057    0.3385   -1.0576 CT        1 <0>        0.14385
      4 C4         -0.9844   -1.8776   -0.2223 CT        1 <0>        0.32683
      5 C5          0.3809    1.0388   -0.2291 CT        1 <0>        0.12802
      6 C6          1.7637    0.8446   -0.8658 CT        1 <0>       -0.11655
      7 O1         -0.9001   -1.4287    1.1263 OS        1 <0>       -0.45690
      8 O2         -0.4084   -1.0416   -1.2205 OS        1 <0>       -0.44683
      9 O3          0.0868    2.4414   -0.2586 OH        1 <0>       -0.59952
     10 H1         -0.4881    1.0336    1.7423 HC        1 <0>        0.05702
     11 H2          1.2605    1.0351    1.7518 HC        1 <0>        0.05702
     12 H3          1.1871   -1.4349    0.9611 H1        1 <0>        0.05443
     13 H4          0.5055   -1.0977    2.5519 H1        1 <0>        0.05443
     14 H5         -1.7064    0.4903   -0.6327 H1        1 <0>        0.06571
     15 H6         -0.7400    0.7816   -2.0603 H1        1 <0>        0.06571
     16 H7         -0.5034   -2.8590   -0.2915 H2        1 <0>        0.06012
     17 H8         -2.0439   -2.0214   -0.4595 H2        1 <0>        0.06012
     18 H9          1.7319    1.1631   -1.9039 HC        1 <0>        0.04607
     19 H10         2.0402   -0.2047   -0.8170 HC        1 <0>        0.04607
     20 H11         2.4967    1.4382   -0.3268 HC        1 <0>        0.04607
     21 H12         0.7910    2.8736    0.2447 HO        1 <0>        0.40178
@<TRIPOS>BOND
     1    1    2 1
     2    1    5 1
     3    2    7 1
     4    3    5 1
     5    3    8 1
     6    4    7 1
     7    4    8 1
     8    5    6 1
     9    5    9 1
    10    1   10 1
    11    1   11 1
    12    2   12 1
    13    2   13 1
    14    3   14 1
    15    3   15 1
    16    4   16 1
    17    4   17 1
    18    6   18 1
    19    6   19 1
    20    6   20 1
    21    9   21 1
@<TRIPOS>SUBSTRUCTURE
     1 <0>         1 GROUP 0 A     ****
