@<TRIPOS>MOLECULE
AlkEthOH_r674
   22    22     1     0     0
SMALL
USER_CHARGES

@<TRIPOS>ATOM
      1 C1         -1.5868    0.3800    1.3946 CT        1 <0>        0.10391
      2 C2         -0.9297    1.3917    0.4584 CT        1 <0>        0.10920
      3 C3          0.3572   -0.8719   -0.9203 CT        1 <0>        0.08185
      4 C4         -1.0130   -1.8572    0.7510 CT        1 <0>        0.32671
      5 C5          1.0059    0.5036   -0.7229 CT        1 <0>        0.33293
      6 C6          2.5078    0.3463   -0.4622 CT        1 <0>       -0.11213
      7 O1         -1.9618   -0.7937    0.6782 OS        1 <0>       -0.45716
      8 O2          0.3130   -1.5449    0.3331 OS        1 <0>       -0.43870
      9 O3          0.4809    1.1953    0.4170 OS        1 <0>       -0.40033
     10 O4          0.8265    1.2508   -1.9271 OH        1 <0>       -0.62181
     11 H1         -0.9551    0.1350    2.2561 H1        1 <0>        0.06077
     12 H2         -2.5210    0.8113    1.7691 H1        1 <0>        0.06077
     13 H3         -1.3718    1.3825   -0.5437 H1        1 <0>        0.06596
     14 H4         -1.0753    2.3920    0.8795 H1        1 <0>        0.06596
     15 H5         -0.6339   -0.7818   -1.3825 H1        1 <0>        0.05785
     16 H6          0.9497   -1.4765   -1.6173 H1        1 <0>        0.05785
     17 H7         -0.9678   -2.2262    1.7813 H2        1 <0>        0.06327
     18 H8         -1.3868   -2.6786    0.1302 H2        1 <0>        0.06327
     19 H9          2.9578    1.3261   -0.3238 HC        1 <0>        0.05636
     20 H10         2.9745   -0.1483   -1.3102 HC        1 <0>        0.05636
     21 H11         2.6612   -0.2509    0.4331 HC        1 <0>        0.05636
     22 H12         1.2635    0.7459   -2.6291 HO        1 <0>        0.41075
@<TRIPOS>BOND
     1    1    2 1
     2    1    7 1
     3    2    9 1
     4    3    5 1
     5    3    8 1
     6    4    7 1
     7    4    8 1
     8    5    6 1
     9    5    9 1
    10    5   10 1
    11    1   11 1
    12    1   12 1
    13    2   13 1
    14    2   14 1
    15    3   15 1
    16    3   16 1
    17    4   17 1
    18    4   18 1
    19    6   19 1
    20    6   20 1
    21    6   21 1
    22   10   22 1
@<TRIPOS>SUBSTRUCTURE
     1 <0>         1 GROUP 0 A     ****
