@<TRIPOS>MOLECULE
AlkEthOH_c1273
   27    26     1     0     0
SMALL
USER_CHARGES

@<TRIPOS>ATOM
      1 C1          0.5281    1.2878   -7.1604 CT        1 <0>       -0.09540
      2 C2          1.0538    0.4723    0.0377 CT        1 <0>       -0.08730
      3 C3          2.4557    2.3203   -0.8917 CT        1 <0>       -0.08730
      4 C4         -0.0231    2.6159   -0.6621 CT        1 <0>       -0.08730
      5 C5          0.8906    1.0000   -2.4043 CT        1 <0>       -0.07539
      6 C6          0.7863    2.1077   -5.9143 CT        1 <0>        0.12993
      7 C7          0.9664    1.9760   -3.5749 CT        1 <0>        0.13207
      8 C8          1.0941    1.6140   -0.9966 CT        1 <0>       -0.05143
      9 O1          0.7299    1.2553   -4.7797 OS        1 <0>       -0.42665
     10 H1          1.2820    0.5040   -7.2750 HC        1 <0>        0.04455
     11 H2         -0.4621    0.8224   -7.1179 HC        1 <0>        0.04455
     12 H3          0.5424    1.9247   -8.0511 HC        1 <0>        0.04455
     13 H4          0.0980   -0.0623   -0.0000 HC        1 <0>        0.03472
     14 H5          1.1824    0.8561    1.0560 HC        1 <0>        0.03472
     15 H6          1.8502   -0.2582   -0.1447 HC        1 <0>        0.03472
     16 H7          2.5304    3.1430   -1.6116 HC        1 <0>        0.03472
     17 H8          3.2774    1.6240   -1.0965 HC        1 <0>        0.03472
     18 H9          2.6235    2.7316    0.1092 HC        1 <0>        0.03472
     19 H10        -0.0425    3.4529   -1.3676 HC        1 <0>        0.03472
     20 H11         0.1158    3.0405    0.3389 HC        1 <0>        0.03472
     21 H12        -1.0063    2.1330   -0.6842 HC        1 <0>        0.03472
     22 H13        -0.0813    0.4885   -2.4453 HC        1 <0>        0.05355
     23 H14         1.6323    0.2061   -2.5697 HC        1 <0>        0.05355
     24 H15         0.0288    2.8897   -5.8057 H1        1 <0>        0.02169
     25 H16         1.7763    2.5713   -5.9580 H1        1 <0>        0.02169
     26 H17         0.2061    2.7574   -3.4954 H1        1 <0>        0.02608
     27 H18         1.9541    2.4386   -3.6479 H1        1 <0>        0.02608
@<TRIPOS>BOND
     1    1    6 1
     2    2    8 1
     3    3    8 1
     4    4    8 1
     5    5    7 1
     6    5    8 1
     7    6    9 1
     8    7    9 1
     9    1   10 1
    10    1   11 1
    11    1   12 1
    12    2   13 1
    13    2   14 1
    14    2   15 1
    15    3   16 1
    16    3   17 1
    17    3   18 1
    18    4   19 1
    19    4   20 1
    20    4   21 1
    21    5   22 1
    22    5   23 1
    23    6   24 1
    24    6   25 1
    25    7   26 1
    26    7   27 1
@<TRIPOS>SUBSTRUCTURE
     1 <0>         1 GROUP 0 A     ****
