@<TRIPOS>MOLECULE
AlkEthOH_r965
   19    19     1     0     0
SMALL
USER_CHARGES

@<TRIPOS>ATOM
      1 C1          1.3361   -1.0406   -0.2445 CT        1 <0>       -0.11204
      2 C2          0.6535   -0.0228   -1.1531 CT        1 <0>       -0.07457
      3 C3          1.1993   -0.6351    1.2165 CT        1 <0>        0.12504
      4 C4         -0.7962    0.5756    0.8074 CT        1 <0>        0.12847
      5 C5         -0.7829    0.2392   -0.6860 CT        1 <0>       -0.10099
      6 C6         -1.4362    1.3461   -1.5062 CT        1 <0>       -0.08836
      7 O1         -0.1735   -0.4623    1.5659 OS        1 <0>       -0.41427
      8 H1          0.8592   -2.0172   -0.3930 HC        1 <0>        0.05035
      9 H2          2.3923   -1.1433   -0.5144 HC        1 <0>        0.05035
     10 H3          1.2272    0.9127   -1.1409 HC        1 <0>        0.04210
     11 H4          0.6573   -0.3875   -2.1868 HC        1 <0>        0.04210
     12 H5          1.6116   -1.4184    1.8604 H1        1 <0>        0.04589
     13 H6          1.7489    0.2898    1.4273 H1        1 <0>        0.04589
     14 H7         -0.2909    1.5272    1.0138 H1        1 <0>        0.04654
     15 H8         -1.8276    0.6677    1.1639 H1        1 <0>        0.04654
     16 H9         -1.3537   -0.6876   -0.8324 HC        1 <0>        0.05965
     17 H10        -0.8865    2.2781   -1.3771 HC        1 <0>        0.03577
     18 H11        -2.4651    1.4931   -1.1792 HC        1 <0>        0.03577
     19 H12        -1.4345    1.0767   -2.5621 HC        1 <0>        0.03577
@<TRIPOS>BOND
     1    1    2 1
     2    1    3 1
     3    2    5 1
     4    3    7 1
     5    4    5 1
     6    4    7 1
     7    5    6 1
     8    1    8 1
     9    1    9 1
    10    2   10 1
    11    2   11 1
    12    3   12 1
    13    3   13 1
    14    4   14 1
    15    4   15 1
    16    5   16 1
    17    6   17 1
    18    6   18 1
    19    6   19 1
@<TRIPOS>SUBSTRUCTURE
     1 <0>         1 GROUP 0 A     ****
