@<TRIPOS>MOLECULE
AlkEthOH_c144
   24    23     1     0     0
SMALL
USER_CHARGES

@<TRIPOS>ATOM
      1 C1         -1.0575    0.1291    0.2504 CT        1 <0>       -0.08724
      2 C2         -0.5175    1.4594    2.2924 CT        1 <0>       -0.08724
      3 C3         -2.7849    0.4841    2.0171 CT        1 <0>       -0.08724
      4 C4          0.6855   -1.3976    2.3348 CT        1 <0>       -0.12398
      5 C5         -1.1111   -1.0689    4.0332 CT        1 <0>       -0.12398
      6 C6         -1.2802    0.2165    1.7742 CT        1 <0>       -0.03448
      7 C7         -0.8096   -1.0895    2.5249 CT        1 <0>        0.15978
      8 O1         -1.5341   -2.2021    1.9739 OH        1 <0>       -0.60067
      9 H1         -1.5789   -0.7387   -0.1712 HC        1 <0>        0.03745
     10 H2         -1.4396    1.0135   -0.2686 HC        1 <0>        0.03745
     11 H3          0.0018    0.0175   -0.0006 HC        1 <0>        0.03745
     12 H4         -0.6318    1.5848    3.3739 HC        1 <0>        0.03745
     13 H5          0.5580    1.3707    2.0973 HC        1 <0>        0.03745
     14 H6         -0.8618    2.3774    1.8044 HC        1 <0>        0.03745
     15 H7         -3.0039    0.5563    3.0892 HC        1 <0>        0.03745
     16 H8         -3.1081    1.4274    1.5656 HC        1 <0>        0.03745
     17 H9         -3.4090   -0.3193    1.6115 HC        1 <0>        0.03745
     18 H10         0.9419   -1.4213    1.2684 HC        1 <0>        0.04200
     19 H11         0.9677   -2.3629    2.7643 HC        1 <0>        0.04200
     20 H12         1.3179   -0.6160    2.7672 HC        1 <0>        0.04200
     21 H13        -2.1625   -0.8543    4.2430 HC        1 <0>        0.04200
     22 H14        -0.8370   -2.0132    4.5135 HC        1 <0>        0.04200
     23 H15        -0.5094   -0.3021    4.5365 HC        1 <0>        0.04200
     24 H16        -1.2499   -2.9770    2.4764 HO        1 <0>        0.39600
@<TRIPOS>BOND
     1    1    6 1
     2    2    6 1
     3    3    6 1
     4    4    7 1
     5    5    7 1
     6    6    7 1
     7    7    8 1
     8    1    9 1
     9    1   10 1
    10    1   11 1
    11    2   12 1
    12    2   13 1
    13    2   14 1
    14    3   15 1
    15    3   16 1
    16    3   17 1
    17    4   18 1
    18    4   19 1
    19    4   20 1
    20    5   21 1
    21    5   22 1
    22    5   23 1
    23    8   24 1
@<TRIPOS>SUBSTRUCTURE
     1 <0>         1 GROUP 0 A     ****
