@<TRIPOS>MOLECULE
AlkEthOH_c163
   28    27     1     0     0
SMALL
USER_CHARGES

@<TRIPOS>ATOM
      1 C1          0.3631   -1.3924   -1.8885 CT        1 <0>       -0.08833
      2 C2         -1.9647   -0.7893   -1.1858 CT        1 <0>       -0.08833
      3 C3         -0.7554    0.6243   -2.8469 CT        1 <0>       -0.08833
      4 C4          1.2124    0.9253    1.7509 CT        1 <0>       -0.11792
      5 C5          0.0059    0.6931   -0.4623 CT        1 <0>       -0.09857
      6 C6          1.4675    0.3694    3.1497 CT        1 <0>        0.13279
      7 C7          0.2441    0.0625    0.9223 CT        1 <0>        0.13923
      8 C8         -0.5877   -0.2260   -1.5698 CT        1 <0>       -0.05014
      9 O1          2.3490    1.2282    3.8585 OH        1 <0>       -0.60572
     10 O2         -0.9861   -0.0538    1.6303 OH        1 <0>       -0.59904
     11 H1          1.3577   -1.0271   -2.1673 HC        1 <0>        0.03582
     12 H2          0.4787   -2.0676   -1.0347 HC        1 <0>        0.03582
     13 H3         -0.0162   -1.9923   -2.7239 HC        1 <0>        0.03582
     14 H4         -2.6686    0.0181   -0.9518 HC        1 <0>        0.03582
     15 H5         -2.4096   -1.3688   -2.0006 HC        1 <0>        0.03582
     16 H6         -1.8964   -1.4344   -0.3030 HC        1 <0>        0.03582
     17 H7         -1.4266    1.4735   -2.6754 HC        1 <0>        0.03582
     18 H8          0.2073    1.0249   -3.1840 HC        1 <0>        0.03582
     19 H9         -1.1762    0.0303   -3.6661 HC        1 <0>        0.03582
     20 H10         2.1682    0.9971    1.2176 HC        1 <0>        0.05823
     21 H11         0.8067    1.9387    1.8560 HC        1 <0>        0.05823
     22 H12         0.9624    1.0902   -0.8289 HC        1 <0>        0.04517
     23 H13        -0.6632    1.5563   -0.3398 HC        1 <0>        0.04517
     24 H14         0.5252    0.3118    3.7039 H1        1 <0>        0.02925
     25 H15         1.9068   -0.6321    3.1079 H1        1 <0>        0.02925
     26 H16         0.6618   -0.9424    0.8144 H1        1 <0>        0.07873
     27 H17         2.4796    0.8345    4.7366 HO        1 <0>        0.40032
     28 H18        -1.3274    0.8472    1.7429 HO        1 <0>        0.39763
@<TRIPOS>BOND
     1    1    8 1
     2    2    8 1
     3    3    8 1
     4    4    6 1
     5    4    7 1
     6    5    7 1
     7    5    8 1
     8    6    9 1
     9    7   10 1
    10    1   11 1
    11    1   12 1
    12    1   13 1
    13    2   14 1
    14    2   15 1
    15    2   16 1
    16    3   17 1
    17    3   18 1
    18    3   19 1
    19    4   20 1
    20    4   21 1
    21    5   22 1
    22    5   23 1
    23    6   24 1
    24    6   25 1
    25    7   26 1
    26    9   27 1
    27   10   28 1
@<TRIPOS>SUBSTRUCTURE
     1 <0>         1 GROUP 0 A     ****
