@<TRIPOS>MOLECULE
AlkEthOH_c1235
   19    18     1     0     0
SMALL
USER_CHARGES

@<TRIPOS>ATOM
      1 C1         -0.5516    3.9198    3.5888 CT        1 <0>       -0.09608
      2 C2         -0.4238    0.8108    0.6004 CT        1 <0>       -0.12335
      3 C3          0.1000    2.8037    2.8007 CT        1 <0>        0.13219
      4 C4         -0.8331   -0.7088    2.5635 CT        1 <0>        0.13098
      5 C5         -0.1831    0.5832    2.0850 CT        1 <0>        0.13315
      6 O1         -0.5999   -0.8539    3.9604 OH        1 <0>       -0.59853
      7 O2         -0.7516    1.6685    2.8163 OS        1 <0>       -0.42172
      8 H1         -1.5130    4.1988    3.1485 HC        1 <0>        0.04423
      9 H2         -0.7138    3.6150    4.6279 HC        1 <0>        0.04423
     10 H3          0.0951    4.8032    3.6136 HC        1 <0>        0.04423
     11 H4         -1.4974    0.8254    0.3837 HC        1 <0>        0.04300
     12 H5          0.0100    1.7589    0.2680 HC        1 <0>        0.04300
     13 H6          0.0060   -0.0016    0.0041 HC        1 <0>        0.04300
     14 H7          1.0609    2.5296    3.2463 H1        1 <0>        0.02474
     15 H8          0.2606    3.1097    1.7626 H1        1 <0>        0.02474
     16 H9         -1.9163   -0.6903    2.4039 H1        1 <0>        0.03603
     17 H10        -0.4036   -1.5777    2.0553 H1        1 <0>        0.03603
     18 H11         0.8907    0.5686    2.3018 H1        1 <0>        0.05759
     19 H12        -1.0260   -1.6832    4.2284 HO        1 <0>        0.40254
@<TRIPOS>BOND
     1    1    3 1
     2    2    5 1
     3    3    7 1
     4    4    5 1
     5    4    6 1
     6    5    7 1
     7    1    8 1
     8    1    9 1
     9    1   10 1
    10    2   11 1
    11    2   12 1
    12    2   13 1
    13    3   14 1
    14    3   15 1
    15    4   16 1
    16    4   17 1
    17    5   18 1
    18    6   19 1
@<TRIPOS>SUBSTRUCTURE
     1 <0>         1 GROUP 0 A     ****
