@<TRIPOS>MOLECULE
AlkEthOH_c512
   25    24     1     0     0
SMALL
USER_CHARGES

@<TRIPOS>ATOM
      1 C1         -1.3754   -1.8310    4.5718 CT        1 <0>       -0.10666
      2 C2         -2.6568    0.0661    3.5179 CT        1 <0>       -0.10666
      3 C3         -0.4921    0.1122    0.9716 CT        1 <0>       -0.10001
      4 C4          1.6723    0.5912    2.1500 CT        1 <0>       -0.10001
      5 C5          0.7921   -1.7855    2.0067 CT        1 <0>        0.10716
      6 C6         -1.4585   -0.8634    3.4011 CT        1 <0>        0.13255
      7 C7          0.4298   -0.2995    2.1208 CT        1 <0>        0.16120
      8 O1          1.8456   -1.9690    1.0676 OH        1 <0>       -0.60215
      9 O2         -0.2710   -0.0901    3.3496 OS        1 <0>       -0.41897
     10 H1         -1.3093   -1.2969    5.5245 HC        1 <0>        0.04178
     11 H2         -2.2584   -2.4787    4.5941 HC        1 <0>        0.04178
     12 H3         -0.5049   -2.4897    4.4781 HC        1 <0>        0.04178
     13 H4         -2.6213    0.6455    4.4456 HC        1 <0>        0.04178
     14 H5         -3.5887   -0.5092    3.5001 HC        1 <0>        0.04178
     15 H6         -2.7003    0.7613    2.6722 HC        1 <0>        0.04178
     16 H7         -1.3862   -0.5210    0.9424 HC        1 <0>        0.04742
     17 H8         -0.8084    1.1564    1.0628 HC        1 <0>        0.04742
     18 H9          0.0077   -0.0148    0.0045 HC        1 <0>        0.04742
     19 H10         2.3454    0.3108    2.9678 HC        1 <0>        0.04742
     20 H11         1.3962    1.6368    2.3298 HC        1 <0>        0.04742
     21 H12         2.2270    0.5381    1.2076 HC        1 <0>        0.04742
     22 H13         1.1389   -2.1760    2.9697 H1        1 <0>        0.02823
     23 H14        -0.0689   -2.3748    1.6736 H1        1 <0>        0.02823
     24 H15        -1.5234   -1.4274    2.4648 H1        1 <0>        0.03746
     25 H16         2.0297   -2.9213    1.0386 HO        1 <0>        0.40443
@<TRIPOS>BOND
     1    1    6 1
     2    2    6 1
     3    3    7 1
     4    4    7 1
     5    5    7 1
     6    5    8 1
     7    6    9 1
     8    7    9 1
     9    1   10 1
    10    1   11 1
    11    1   12 1
    12    2   13 1
    13    2   14 1
    14    2   15 1
    15    3   16 1
    16    3   17 1
    17    3   18 1
    18    4   19 1
    19    4   20 1
    20    4   21 1
    21    5   22 1
    22    5   23 1
    23    6   24 1
    24    8   25 1
@<TRIPOS>SUBSTRUCTURE
     1 <0>         1 GROUP 0 A     ****
