@<TRIPOS>MOLECULE
AlkEthOH_r948
   29    29     1     0     0
SMALL
USER_CHARGES

@<TRIPOS>ATOM
      1 C1          1.0861    1.5842   -1.3416 CT        1 <0>       -0.06791
      2 C2          1.9213    1.4596   -0.0685 CT        1 <0>       -0.11086
      3 C3         -0.1114    0.6361   -1.4962 CT        1 <0>       -0.08228
      4 C4          2.4995    0.0690    0.1747 CT        1 <0>        0.13268
      5 C5          0.5552   -0.8484    1.2209 CT        1 <0>        0.10037
      6 C6         -1.0625    0.5782   -0.2713 CT        1 <0>       -0.03507
      7 C7         -0.8686   -0.6782    0.6490 CT        1 <0>        0.13731
      8 C8         -2.5091    0.6738   -0.7987 CT        1 <0>       -0.08909
      9 C9         -1.8397   -0.6500    1.8424 CT        1 <0>       -0.12778
     10 O1          1.5187   -0.9599    0.1790 OS        1 <0>       -0.40878
     11 O2         -1.1894   -1.8645   -0.0899 OH        1 <0>       -0.58538
     12 H1          0.7157    2.6161   -1.3985 HC        1 <0>        0.03672
     13 H2          1.7420    1.4517   -2.2115 HC        1 <0>        0.03672
     14 H3          2.7515    2.1746   -0.1244 HC        1 <0>        0.04266
     15 H4          1.3179    1.7751    0.7889 HC        1 <0>        0.04266
     16 H5         -0.6597    0.9875   -2.3809 HC        1 <0>        0.05876
     17 H6          0.2323   -0.3660   -1.7743 HC        1 <0>        0.05876
     18 H7          3.2116   -0.1716   -0.6220 H1        1 <0>        0.04491
     19 H8          3.0559    0.0440    1.1190 H1        1 <0>        0.04491
     20 H9          0.7988   -0.0486    1.9300 H1        1 <0>        0.04296
     21 H10         0.6134   -1.7929    1.7756 H1        1 <0>        0.04296
     22 H11        -0.9102    1.4689    0.3411 HC        1 <0>        0.04292
     23 H12        -2.7183   -0.1907   -1.4180 HC        1 <0>        0.03816
     24 H13        -2.6135    1.5799   -1.3841 HC        1 <0>        0.03816
     25 H14        -3.1920    0.6981    0.0426 HC        1 <0>        0.03816
     26 H15        -2.8533   -0.5311    1.4751 HC        1 <0>        0.04258
     27 H16        -1.5851    0.1819    2.4902 HC        1 <0>        0.04258
     28 H17        -1.7564   -1.5813    2.3924 HC        1 <0>        0.04258
     29 H18        -1.1393   -2.5939    0.5429 HO        1 <0>        0.39963
@<TRIPOS>BOND
     1    1    2 1
     2    1    3 1
     3    2    4 1
     4    3    6 1
     5    4   10 1
     6    5    7 1
     7    5   10 1
     8    6    7 1
     9    6    8 1
    10    7    9 1
    11    7   11 1
    12    1   12 1
    13    1   13 1
    14    2   14 1
    15    2   15 1
    16    3   16 1
    17    3   17 1
    18    4   18 1
    19    4   19 1
    20    5   20 1
    21    5   21 1
    22    6   22 1
    23    8   23 1
    24    8   24 1
    25    8   25 1
    26    9   26 1
    27    9   27 1
    28    9   28 1
    29   11   29 1
@<TRIPOS>SUBSTRUCTURE
     1 <0>         1 GROUP 0 A     ****
