@<TRIPOS>MOLECULE
AlkEthOH_r757
   29    29     1     0     0
SMALL
USER_CHARGES

@<TRIPOS>ATOM
      1 C1         -1.2055   -1.4583    1.5903 CT        1 <0>       -0.14632
      2 C2         -0.7058   -2.2700    0.3976 CT        1 <0>        0.14055
      3 C3         -0.1732   -0.5112    2.2133 CT        1 <0>        0.13372
      4 C4          0.4349   -0.9138   -1.2290 CT        1 <0>        0.14127
      5 C5         -0.0469    1.0220    0.3684 CT        1 <0>        0.14434
      6 C6          0.3951    0.6327   -1.0743 CT        1 <0>       -0.07796
      7 C7          0.2337    2.4685    0.7713 CT        1 <0>       -0.10649
      8 C8         -0.6049    1.2201   -2.0901 CT        1 <0>       -0.08706
      9 C9          1.8042    1.1597   -1.4125 CT        1 <0>       -0.08706
     10 O1         -0.7861   -1.5246   -0.8184 OS        1 <0>       -0.42594
     11 O2          0.6543    0.1749    1.2834 OS        1 <0>       -0.42470
     12 H1         -2.0856   -0.8820    1.2818 HC        1 <0>        0.05466
     13 H2         -1.5443   -2.1424    2.3779 HC        1 <0>        0.05466
     14 H3          0.2910   -2.6920    0.5679 H1        1 <0>        0.04730
     15 H4         -1.3857   -3.1194    0.2654 H1        1 <0>        0.04730
     16 H5         -0.6686    0.2156    2.8676 H1        1 <0>        0.04351
     17 H6          0.5005   -1.0975    2.8481 H1        1 <0>        0.04351
     18 H7          0.5732   -1.1705   -2.2865 H1        1 <0>        0.04815
     19 H8          1.2962   -1.3428   -0.7015 H1        1 <0>        0.04815
     20 H9         -1.1299    0.8762    0.4540 H1        1 <0>        0.05114
     21 H10         1.3016    2.6696    0.7042 HC        1 <0>        0.04229
     22 H11        -0.0975    2.6371    1.7946 HC        1 <0>        0.04229
     23 H12        -0.2996    3.1465    0.1071 HC        1 <0>        0.04229
     24 H13        -0.6305    2.2982   -1.9799 HC        1 <0>        0.03840
     25 H14        -1.5887    0.8074   -1.8985 HC        1 <0>        0.03840
     26 H15        -0.2857    0.9602   -3.0929 HC        1 <0>        0.03840
     27 H16         1.8120    2.2391   -1.3144 HC        1 <0>        0.03840
     28 H17         2.0520    0.8810   -2.4302 HC        1 <0>        0.03840
     29 H18         2.5203    0.7225   -0.7262 HC        1 <0>        0.03840
@<TRIPOS>BOND
     1    1    2 1
     2    1    3 1
     3    2   10 1
     4    3   11 1
     5    4    6 1
     6    4   10 1
     7    5    6 1
     8    5    7 1
     9    5   11 1
    10    6    8 1
    11    6    9 1
    12    1   12 1
    13    1   13 1
    14    2   14 1
    15    2   15 1
    16    3   16 1
    17    3   17 1
    18    4   18 1
    19    4   19 1
    20    5   20 1
    21    7   21 1
    22    7   22 1
    23    7   23 1
    24    8   24 1
    25    8   25 1
    26    8   26 1
    27    9   27 1
    28    9   28 1
    29    9   29 1
@<TRIPOS>SUBSTRUCTURE
     1 <0>         1 GROUP 0 A     ****
