@<TRIPOS>MOLECULE
AlkEthOH_r1068
   27    27     1     0     0
SMALL
USER_CHARGES

@<TRIPOS>ATOM
      1 C1         -0.1713    1.3456    1.7392 CT        1 <0>       -0.08764
      2 C2         -0.1946   -0.1830    1.6525 CT        1 <0>       -0.12492
      3 C3         -0.3767    2.0848    0.4216 CT        1 <0>        0.12710
      4 C4         -1.1580    0.9126   -1.5113 CT        1 <0>        0.11030
      5 C5         -0.5747   -0.4851   -1.2847 CT        1 <0>        0.11909
      6 C6          0.8050   -0.8443    0.6810 CT        1 <0>        0.35023
      7 C7         -0.3547   -1.1903   -2.6184 CT        1 <0>       -0.10075
      8 C8          2.2461   -0.5809    1.1284 CT        1 <0>       -0.11296
      9 O1         -1.4981    1.5579   -0.2829 OS        1 <0>       -0.42097
     10 O2          0.7048   -0.3601   -0.6616 OS        1 <0>       -0.41362
     11 O3          0.5721   -2.2571    0.7362 OH        1 <0>       -0.62469
     12 H1         -0.9798    1.6375    2.4223 HC        1 <0>        0.04556
     13 H2          0.7594    1.6878    2.2054 HC        1 <0>        0.04556
     14 H3         -0.0265   -0.5885    2.6600 HC        1 <0>        0.05596
     15 H4         -1.2159   -0.5005    1.4073 HC        1 <0>        0.05596
     16 H5         -0.5961    3.1360    0.6394 H1        1 <0>        0.04777
     17 H6          0.5378    2.0813   -0.1825 H1        1 <0>        0.04777
     18 H7         -0.4764    1.5523   -2.0852 H1        1 <0>        0.05419
     19 H8         -2.0877    0.8285   -2.0847 H1        1 <0>        0.05419
     20 H9         -1.2603   -1.0883   -0.6800 H1        1 <0>        0.06960
     21 H10         0.3257   -0.6080   -3.2391 HC        1 <0>        0.04563
     22 H11        -1.3043   -1.3014   -3.1412 HC        1 <0>        0.04563
     23 H12         0.0753   -2.1774   -2.4505 HC        1 <0>        0.04563
     24 H13         2.9359   -1.0535    0.4333 HC        1 <0>        0.05241
     25 H14         2.3998   -0.9914    2.1233 HC        1 <0>        0.05241
     26 H15         2.4318    0.4902    1.1479 HC        1 <0>        0.05241
     27 H16         0.7271   -2.5191    1.6547 HO        1 <0>        0.40815
@<TRIPOS>BOND
     1    1    2 1
     2    1    3 1
     3    2    6 1
     4    3    9 1
     5    4    5 1
     6    4    9 1
     7    5    7 1
     8    5   10 1
     9    6    8 1
    10    6   10 1
    11    6   11 1
    12    1   12 1
    13    1   13 1
    14    2   14 1
    15    2   15 1
    16    3   16 1
    17    3   17 1
    18    4   18 1
    19    4   19 1
    20    5   20 1
    21    7   21 1
    22    7   22 1
    23    7   23 1
    24    8   24 1
    25    8   25 1
    26    8   26 1
    27   11   27 1
@<TRIPOS>SUBSTRUCTURE
     1 <0>         1 GROUP 0 A     ****
