@<TRIPOS>MOLECULE
AlkEthOH_c235
   20    19     1     0     0
SMALL
USER_CHARGES

@<TRIPOS>ATOM
      1 C1         -0.4921    0.1122    0.9716 CT        1 <0>       -0.10120
      2 C2          1.6723    0.5912    2.1500 CT        1 <0>       -0.10120
      3 C3          0.7921   -1.7855    2.0067 CT        1 <0>        0.10375
      4 C4         -1.4644   -0.8581    3.4177 CT        1 <0>        0.32903
      5 C5          0.4298   -0.2995    2.1208 CT        1 <0>        0.16616
      6 O1          1.8456   -1.9690    1.0676 OH        1 <0>       -0.59815
      7 O2         -1.9986   -0.9429    4.7310 OH        1 <0>       -0.59642
      8 O3         -0.2710   -0.0901    3.3496 OS        1 <0>       -0.46474
      9 H1         -1.3862   -0.5210    0.9424 HC        1 <0>        0.04915
     10 H2         -0.8084    1.1564    1.0628 HC        1 <0>        0.04915
     11 H3          0.0077   -0.0148    0.0045 HC        1 <0>        0.04915
     12 H4          2.3454    0.3108    2.9678 HC        1 <0>        0.04915
     13 H5          1.3962    1.6368    2.3298 HC        1 <0>        0.04915
     14 H6          2.2270    0.5381    1.2076 HC        1 <0>        0.04915
     15 H7          1.1389   -2.1760    2.9697 H1        1 <0>        0.03266
     16 H8         -0.0689   -2.3748    1.6736 H1        1 <0>        0.03266
     17 H9         -1.3196   -1.8622    3.0023 H2        1 <0>        0.03960
     18 H10        -2.2067   -0.3465    2.7984 H2        1 <0>        0.03960
     19 H11         2.0297   -2.9213    1.0386 HO        1 <0>        0.40369
     20 H12        -2.1919   -0.0358    5.0222 HO        1 <0>        0.41966
@<TRIPOS>BOND
     1    1    5 1
     2    2    5 1
     3    3    5 1
     4    3    6 1
     5    4    7 1
     6    4    8 1
     7    5    8 1
     8    1    9 1
     9    1   10 1
    10    1   11 1
    11    2   12 1
    12    2   13 1
    13    2   14 1
    14    3   15 1
    15    3   16 1
    16    4   17 1
    17    4   18 1
    18    6   19 1
    19    7   20 1
@<TRIPOS>SUBSTRUCTURE
     1 <0>         1 GROUP 0 A     ****
