@<TRIPOS>MOLECULE
AlkEthOH_r368
   33    33     1     0     0
SMALL
USER_CHARGES

@<TRIPOS>ATOM
      1 C1         -0.6852   -2.2248   -1.4288 CT        1 <0>       -0.07673
      2 C2         -0.3419   -2.3404    0.0546 CT        1 <0>       -0.07658
      3 C3         -0.5919   -0.8526   -2.0950 CT        1 <0>       -0.06560
      4 C4          1.1170   -2.0734    0.4320 CT        1 <0>       -0.06560
      5 C5         -1.4678    0.2520   -1.4832 CT        1 <0>       -0.10850
      6 C6          1.6147   -0.6226    0.4512 CT        1 <0>       -0.10850
      7 C7         -0.7488    1.2133   -0.5130 CT        1 <0>        0.37369
      8 C8          0.7841    0.4008    1.2498 CT        1 <0>        0.37369
      9 C9         -1.6824    2.3877   -0.1943 CT        1 <0>       -0.10996
     10 C10         0.6313   -0.0462    2.7091 CT        1 <0>       -0.10996
     11 O1         -0.5385    0.5366    0.7305 OS        1 <0>       -0.46525
     12 O2          0.4077    1.7295   -1.1688 OH        1 <0>       -0.62522
     13 O3          1.5017    1.6400    1.2560 OH        1 <0>       -0.62522
     14 H1         -0.0478   -2.9197   -1.9906 HC        1 <0>        0.04055
     15 H2         -1.7110   -2.5942   -1.5607 HC        1 <0>        0.04055
     16 H3         -1.0363   -1.7564    0.6626 HC        1 <0>        0.04055
     17 H4         -0.5472   -3.3834    0.3347 HC        1 <0>        0.04055
     18 H5          0.4496   -0.5407   -2.1987 HC        1 <0>        0.04154
     19 H6         -0.9385   -0.9975   -3.1282 HC        1 <0>        0.04154
     20 H7          1.2823   -2.4967    1.4313 HC        1 <0>        0.04154
     21 H8          1.7684   -2.6511   -0.2364 HC        1 <0>        0.04154
     22 H9         -1.8364    0.8504   -2.3280 HC        1 <0>        0.05462
     23 H10        -2.3457   -0.1949   -1.0008 HC        1 <0>        0.05462
     24 H11         2.6361   -0.6285    0.8581 HC        1 <0>        0.05462
     25 H12         1.7502   -0.2772   -0.5762 HC        1 <0>        0.05462
     26 H13        -1.1854    3.0712    0.4887 HC        1 <0>        0.05261
     27 H14        -2.5919    2.0129    0.2673 HC        1 <0>        0.05261
     28 H15        -1.9322    2.9120   -1.1127 HC        1 <0>        0.05261
     29 H16         0.0437    0.6879    3.2535 HC        1 <0>        0.05261
     30 H17         1.6133   -0.1343    3.1659 HC        1 <0>        0.05261
     31 H18         0.1288   -1.0090    2.7426 HC        1 <0>        0.05261
     32 H19         0.0918    2.1937   -1.9591 HO        1 <0>        0.41362
     33 H20         2.3519    1.4570    1.6807 HO        1 <0>        0.41362
@<TRIPOS>BOND
     1    1    2 1
     2    1    3 1
     3    2    4 1
     4    3    5 1
     5    4    6 1
     6    5    7 1
     7    6    8 1
     8    7    9 1
     9    7   11 1
    10    7   12 1
    11    8   10 1
    12    8   11 1
    13    8   13 1
    14    1   14 1
    15    1   15 1
    16    2   16 1
    17    2   17 1
    18    3   18 1
    19    3   19 1
    20    4   20 1
    21    4   21 1
    22    5   22 1
    23    5   23 1
    24    6   24 1
    25    6   25 1
    26    9   26 1
    27    9   27 1
    28    9   28 1
    29   10   29 1
    30   10   30 1
    31   10   31 1
    32   12   32 1
    33   13   33 1
@<TRIPOS>SUBSTRUCTURE
     1 <0>         1 GROUP 0 A     ****
