@<TRIPOS>MOLECULE
AlkEthOH_r202
   30    30     1     0     0
SMALL
USER_CHARGES

@<TRIPOS>ATOM
      1 C1         -1.3188    0.2525   -2.2441 CT        1 <0>       -0.11434
      2 C2         -0.1265   -0.6987   -2.3059 CT        1 <0>        0.13383
      3 C3         -1.3306    1.1329   -0.9969 CT        1 <0>        0.13252
      4 C4          0.9911   -1.4232   -0.3029 CT        1 <0>        0.11904
      5 C5          1.0525   -0.1097    0.5221 CT        1 <0>        0.10009
      6 C6         -0.3344    0.3524    1.1185 CT        1 <0>        0.18551
      7 C7          2.1404   -0.2929    1.6017 CT        1 <0>       -0.12605
      8 C8         -0.2951    1.7557    1.7566 CT        1 <0>       -0.10420
      9 C9         -0.8103   -0.6298    2.2108 CT        1 <0>       -0.10420
     10 O1         -0.1339   -1.5537   -1.1685 OS        1 <0>       -0.39615
     11 O2         -1.4098    0.3129    0.1608 OS        1 <0>       -0.40947
     12 O3          1.5753    0.9015   -0.3522 OH        1 <0>       -0.60465
     13 H1         -1.3360    0.8809   -3.1410 HC        1 <0>        0.05352
     14 H2         -2.2346   -0.3521   -2.2409 HC        1 <0>        0.05352
     15 H3         -0.2325   -1.3376   -3.1894 H1        1 <0>        0.03823
     16 H4          0.8161   -0.1547   -2.4220 H1        1 <0>        0.03823
     17 H5         -0.4841    1.8218   -0.9931 H1        1 <0>        0.04858
     18 H6         -2.2359    1.7497   -1.0139 H1        1 <0>        0.04858
     19 H7          1.9049   -1.5566   -0.8964 H1        1 <0>        0.04527
     20 H8          0.9324   -2.2771    0.3814 H1        1 <0>        0.04527
     21 H9          2.2052    0.6116    2.1945 HC        1 <0>        0.04573
     22 H10         3.0898   -0.4853    1.1167 HC        1 <0>        0.04573
     23 H11         1.8722   -1.1306    2.2343 HC        1 <0>        0.04573
     24 H12        -1.2793    1.9981    2.1403 HC        1 <0>        0.04691
     25 H13        -0.0050    2.4792    1.0036 HC        1 <0>        0.04691
     26 H14         0.4262    1.7568    2.5657 HC        1 <0>        0.04691
     27 H15        -1.7615   -0.2887    2.6010 HC        1 <0>        0.04691
     28 H16        -0.0738   -0.6576    3.0045 HC        1 <0>        0.04691
     29 H17        -0.9214   -1.6150    1.7746 HC        1 <0>        0.04691
     30 H18         2.4514    0.5936   -0.6213 HO        1 <0>        0.39822
@<TRIPOS>BOND
     1    1    2 1
     2    1    3 1
     3    2   10 1
     4    3   11 1
     5    4    5 1
     6    4   10 1
     7    5    6 1
     8    5    7 1
     9    5   12 1
    10    6    8 1
    11    6    9 1
    12    6   11 1
    13    1   13 1
    14    1   14 1
    15    2   15 1
    16    2   16 1
    17    3   17 1
    18    3   18 1
    19    4   19 1
    20    4   20 1
    21    7   21 1
    22    7   22 1
    23    7   23 1
    24    8   24 1
    25    8   25 1
    26    8   26 1
    27    9   27 1
    28    9   28 1
    29    9   29 1
    30   12   30 1
@<TRIPOS>SUBSTRUCTURE
     1 <0>         1 GROUP 0 A     ****
