@<TRIPOS>MOLECULE
AlkEthOH_r204
   25    25     1     0     0
SMALL
USER_CHARGES

@<TRIPOS>ATOM
      1 C1          0.5462   -0.0947    2.4939 CT        1 <0>       -0.11992
      2 C2         -0.8952    0.3067    2.1891 CT        1 <0>        0.13429
      3 C3          1.4012   -0.3076    1.2508 CT        1 <0>        0.13936
      4 C4         -1.7203   -0.1983   -0.0087 CT        1 <0>        0.10851
      5 C5         -0.5774   -0.6292   -0.9325 CT        1 <0>        0.10222
      6 C6          0.6626    0.3077   -0.9665 CT        1 <0>        0.35081
      7 C7          0.3773    1.6083   -1.7282 CT        1 <0>       -0.10555
      8 O1         -1.5225   -0.6399    1.3335 OS        1 <0>       -0.42085
      9 O2          1.1214    0.7279    0.3204 OS        1 <0>       -0.46126
     10 O3         -1.1120   -0.7486   -2.2556 OH        1 <0>       -0.58969
     11 O4          1.7186   -0.3323   -1.6961 OH        1 <0>       -0.61812
     12 H1          0.9923    0.6966    3.1084 HC        1 <0>        0.05355
     13 H2          0.5649   -1.0145    3.0899 HC        1 <0>        0.05355
     14 H3         -1.4580    0.3134    3.1290 H1        1 <0>        0.04985
     15 H4         -0.9488    1.3253    1.7873 H1        1 <0>        0.04985
     16 H5          2.4604   -0.2427    1.5221 H1        1 <0>        0.04931
     17 H6          1.2448   -1.3086    0.8379 H1        1 <0>        0.04931
     18 H7         -1.9290    0.8759   -0.0636 H1        1 <0>        0.05574
     19 H8         -2.6419   -0.6876   -0.3473 H1        1 <0>        0.05574
     20 H9         -0.2662   -1.6406   -0.6465 H1        1 <0>        0.06772
     21 H10         1.2677    2.2299   -1.7267 HC        1 <0>        0.05812
     22 H11        -0.4369    2.1388   -1.2436 HC        1 <0>        0.05812
     23 H12         0.0999    1.3735   -2.7516 HC        1 <0>        0.05812
     24 H13        -1.8084   -1.4187   -2.2051 HO        1 <0>        0.40689
     25 H14         2.4610    0.2871   -1.6879 HO        1 <0>        0.41433
@<TRIPOS>BOND
     1    1    2 1
     2    1    3 1
     3    2    8 1
     4    3    9 1
     5    4    5 1
     6    4    8 1
     7    5    6 1
     8    5   10 1
     9    6    7 1
    10    6    9 1
    11    6   11 1
    12    1   12 1
    13    1   13 1
    14    2   14 1
    15    2   15 1
    16    3   16 1
    17    3   17 1
    18    4   18 1
    19    4   19 1
    20    5   20 1
    21    7   21 1
    22    7   22 1
    23    7   23 1
    24   10   24 1
    25   11   25 1
@<TRIPOS>SUBSTRUCTURE
     1 <0>         1 GROUP 0 A     ****
