@<TRIPOS>MOLECULE
AlkEthOH_r381
   29    29     1     0     0
SMALL
USER_CHARGES

@<TRIPOS>ATOM
      1 C1         -1.3745    1.6889   -0.9598 CT        1 <0>       -0.07308
      2 C2         -0.0047    1.8567   -1.6294 CT        1 <0>       -0.07445
      3 C3         -1.3640    1.8304    0.5666 CT        1 <0>       -0.07398
      4 C4          1.1324    0.9603   -1.1229 CT        1 <0>       -0.07369
      5 C5         -1.9546    0.6244    1.3108 CT        1 <0>       -0.08465
      6 C6          0.8476   -0.5506   -1.1880 CT        1 <0>       -0.07950
      7 C7         -1.2880   -0.7102    0.9839 CT        1 <0>        0.14420
      8 C8          0.9434   -1.2456    0.1895 CT        1 <0>        0.34830
      9 C9          0.6328   -2.7426    0.0814 CT        1 <0>       -0.14749
     10 O1          0.1184   -0.5911    1.1573 OS        1 <0>       -0.45751
     11 O2          2.3112   -1.1206    0.6105 OH        1 <0>       -0.59033
     12 H1         -2.0327    2.4677   -1.3679 HC        1 <0>        0.03321
     13 H2         -1.8293    0.7461   -1.2775 HC        1 <0>        0.03321
     14 H3         -0.1291    1.6924   -2.7072 HC        1 <0>        0.03538
     15 H4          0.3120    2.9016   -1.5171 HC        1 <0>        0.03538
     16 H5         -0.3584    2.0383    0.9461 HC        1 <0>        0.04705
     17 H6         -1.9616    2.7105    0.8375 HC        1 <0>        0.04705
     18 H7          2.0105    1.1664   -1.7493 HC        1 <0>        0.05470
     19 H8          1.4246    1.2698   -0.1139 HC        1 <0>        0.05470
     20 H9         -1.8494    0.8174    2.3857 HC        1 <0>        0.04435
     21 H10        -3.0286    0.5496    1.1044 HC        1 <0>        0.04435
     22 H11        -0.1240   -0.7379   -1.6551 HC        1 <0>        0.05197
     23 H12         1.5953   -1.0015   -1.8547 HC        1 <0>        0.05197
     24 H13        -1.6513   -1.4791    1.6745 H1        1 <0>        0.03131
     25 H14        -1.5638   -1.0283   -0.0248 H1        1 <0>        0.03131
     26 H15         0.7082   -3.2017    1.0638 HC        1 <0>        0.04940
     27 H16         1.3436   -3.2138   -0.5926 HC        1 <0>        0.04940
     28 H17        -0.3746   -2.8782   -0.3039 HC        1 <0>        0.04940
     29 H18         2.3642   -1.5567    1.4715 HO        1 <0>        0.41804
@<TRIPOS>BOND
     1    1    2 1
     2    1    3 1
     3    2    4 1
     4    3    5 1
     5    4    6 1
     6    5    7 1
     7    6    8 1
     8    7   10 1
     9    8    9 1
    10    8   10 1
    11    8   11 1
    12    1   12 1
    13    1   13 1
    14    2   14 1
    15    2   15 1
    16    3   16 1
    17    3   17 1
    18    4   18 1
    19    4   19 1
    20    5   20 1
    21    5   21 1
    22    6   22 1
    23    6   23 1
    24    7   24 1
    25    7   25 1
    26    9   26 1
    27    9   27 1
    28    9   28 1
    29   11   29 1
@<TRIPOS>SUBSTRUCTURE
     1 <0>         1 GROUP 0 A     ****
