@<TRIPOS>MOLECULE
AlkEthOH_r1108
   21    21     1     0     0
SMALL
USER_CHARGES

@<TRIPOS>ATOM
      1 C1         -1.1919    0.5096   -1.4650 CT        1 <0>        0.10462
      2 C2         -0.9361    1.5445   -0.3721 CT        1 <0>        0.11283
      3 C3          1.2604   -0.8388    0.5819 CT        1 <0>        0.11856
      4 C4         -0.3037   -1.6667   -1.0478 CT        1 <0>        0.32083
      5 C5          0.3579    0.2460    1.1742 CT        1 <0>        0.10413
      6 C6          0.9096    0.7317    2.5101 CT        1 <0>       -0.10243
      7 O1         -1.4030   -0.7723   -0.8757 OS        1 <0>       -0.46392
      8 O2          0.9846   -1.1186   -0.7873 OS        1 <0>       -0.43295
      9 O3          0.3222    1.3646    0.2817 OS        1 <0>       -0.40806
     10 H1         -2.1135    0.7738   -1.9938 H1        1 <0>        0.05843
     11 H2         -0.3778    0.4894   -2.1989 H1        1 <0>        0.05843
     12 H3         -0.9125    2.5395   -0.8281 H1        1 <0>        0.05238
     13 H4         -1.7379    1.5431    0.3754 H1        1 <0>        0.05238
     14 H5          2.3032   -0.5018    0.6075 H1        1 <0>        0.05385
     15 H6          1.2046   -1.7632    1.1685 H1        1 <0>        0.05385
     16 H7         -0.4700   -2.5460   -0.4165 H2        1 <0>        0.06127
     17 H8         -0.3104   -2.0095   -2.0880 H2        1 <0>        0.06127
     18 H9         -0.6482   -0.1493    1.3552 H1        1 <0>        0.06151
     19 H10         1.9129    1.1342    2.3736 HC        1 <0>        0.04434
     20 H11         0.9528   -0.0962    3.2173 HC        1 <0>        0.04434
     21 H12         0.2665    1.5120    2.9161 HC        1 <0>        0.04434
@<TRIPOS>BOND
     1    1    2 1
     2    1    7 1
     3    2    9 1
     4    3    5 1
     5    3    8 1
     6    4    7 1
     7    4    8 1
     8    5    6 1
     9    5    9 1
    10    1   10 1
    11    1   11 1
    12    2   12 1
    13    2   13 1
    14    3   14 1
    15    3   15 1
    16    4   16 1
    17    4   17 1
    18    5   18 1
    19    6   19 1
    20    6   20 1
    21    6   21 1
@<TRIPOS>SUBSTRUCTURE
     1 <0>         1 GROUP 0 A     ****
