@<TRIPOS>MOLECULE
AlkEthOH_r347
   31    31     1     0     0
SMALL
USER_CHARGES

@<TRIPOS>ATOM
      1 C1          0.2757    2.0552    1.3432 CT        1 <0>       -0.07577
      2 C2         -0.6836    1.0054    1.9075 CT        1 <0>       -0.07208
      3 C3          0.5257    2.0076   -0.1658 CT        1 <0>       -0.07329
      4 C4         -0.1468   -0.4289    1.8752 CT        1 <0>       -0.06649
      5 C5          1.3484    0.8014   -0.6322 CT        1 <0>       -0.06597
      6 C6         -0.7718   -0.7203   -0.6483 CT        1 <0>       -0.09904
      7 C7         -0.7268   -1.3098    0.7651 CT        1 <0>        0.14692
      8 C8          0.5608   -0.3344   -1.3353 CT        1 <0>       -0.04273
      9 C9          1.4803   -1.5679   -1.4427 CT        1 <0>       -0.08987
     10 C10         0.2215    0.1193   -2.7764 CT        1 <0>       -0.08987
     11 O1         -2.0833   -1.6275    1.1096 OH        1 <0>       -0.60683
     12 H1         -0.1435    3.0428    1.5764 HC        1 <0>        0.03604
     13 H2          1.2330    2.0027    1.8768 HC        1 <0>        0.03604
     14 H3         -0.8511    1.2699    2.9603 HC        1 <0>        0.04469
     15 H4         -1.6639    1.0839    1.4248 HC        1 <0>        0.04469
     16 H5         -0.4177    2.1040   -0.7118 HC        1 <0>        0.03800
     17 H6          1.1009    2.9097   -0.4149 HC        1 <0>        0.03800
     18 H7          0.9463   -0.4405    1.8502 HC        1 <0>        0.04946
     19 H8         -0.4190   -0.8942    2.8332 HC        1 <0>        0.04946
     20 H9          2.1018    1.1733   -1.3421 HC        1 <0>        0.03927
     21 H10         1.9446    0.4077    0.1976 HC        1 <0>        0.03927
     22 H11        -1.2738   -1.4664   -1.2836 HC        1 <0>        0.04477
     23 H12        -1.4694    0.1264   -0.6670 HC        1 <0>        0.04477
     24 H13        -0.1859   -2.2622    0.7522 H1        1 <0>        0.02781
     25 H14         0.9410   -2.3701   -1.9329 HC        1 <0>        0.03464
     26 H15         1.7753   -1.8775   -0.4468 HC        1 <0>        0.03464
     27 H16         2.3579   -1.3061   -2.0222 HC        1 <0>        0.03464
     28 H17        -0.3282   -0.6712   -3.2696 HC        1 <0>        0.03464
     29 H18         1.1442    0.3179   -3.3049 HC        1 <0>        0.03464
     30 H19        -0.3803    1.0168   -2.7259 HC        1 <0>        0.03464
     31 H20        -2.4176   -2.1817    0.3913 HO        1 <0>        0.39491
@<TRIPOS>BOND
     1    1    2 1
     2    1    3 1
     3    2    4 1
     4    3    5 1
     5    4    7 1
     6    5    8 1
     7    6    7 1
     8    6    8 1
     9    7   11 1
    10    8    9 1
    11    8   10 1
    12    1   12 1
    13    1   13 1
    14    2   14 1
    15    2   15 1
    16    3   16 1
    17    3   17 1
    18    4   18 1
    19    4   19 1
    20    5   20 1
    21    5   21 1
    22    6   22 1
    23    6   23 1
    24    7   24 1
    25    9   25 1
    26    9   26 1
    27    9   27 1
    28   10   28 1
    29   10   29 1
    30   10   30 1
    31   11   31 1
@<TRIPOS>SUBSTRUCTURE
     1 <0>         1 GROUP 0 A     ****
