@<TRIPOS>MOLECULE
AlkEthOH_c624
   25    24     1     0     0
SMALL
USER_CHARGES

@<TRIPOS>ATOM
      1 C1         -0.3741    0.1550    1.9983 CT        1 <0>       -0.08397
      2 C2          1.3179   -1.6977   -0.4138 CT        1 <0>       -0.12501
      3 C3          1.8640    0.1004   -2.0646 CT        1 <0>       -0.12501
      4 C4         -0.1158    0.4192   -0.5455 CT        1 <0>       -0.06489
      5 C5         -2.3680    0.6492    0.5437 CT        1 <0>        0.13027
      6 C6         -1.0079   -0.0652    0.6214 CT        1 <0>       -0.05986
      7 C7          1.3001   -0.1903   -0.6676 CT        1 <0>        0.15471
      8 O1         -3.2533    0.1235    1.5244 OH        1 <0>       -0.60071
      9 O2          2.1816    0.4187    0.2761 OH        1 <0>       -0.59691
     10 H1         -0.1569    1.2140    2.1723 HC        1 <0>        0.04142
     11 H2          0.5646   -0.4005    2.0949 HC        1 <0>        0.04142
     12 H3         -1.0462   -0.1599    2.8012 HC        1 <0>        0.04142
     13 H4          0.9184   -1.9284    0.5807 HC        1 <0>        0.04283
     14 H5          0.6766   -2.2322   -1.1224 HC        1 <0>        0.04283
     15 H6          2.3318   -2.1052   -0.4796 HC        1 <0>        0.04283
     16 H7          1.8676    1.1732   -2.2837 HC        1 <0>        0.04283
     17 H8          1.2770   -0.4098   -2.8369 HC        1 <0>        0.04283
     18 H9          2.8894   -0.2756   -2.1582 HC        1 <0>        0.04283
     19 H10        -0.6546    0.2188   -1.4819 HC        1 <0>        0.04938
     20 H11        -0.0215    1.5114   -0.4685 HC        1 <0>        0.04938
     21 H12        -2.8285    0.4969   -0.4381 H1        1 <0>        0.01987
     22 H13        -2.2573    1.7255    0.7148 H1        1 <0>        0.01987
     23 H14        -1.1975   -1.1404    0.5151 HC        1 <0>        0.05815
     24 H15        -4.0906    0.6059    1.4324 HO        1 <0>        0.39763
     25 H16         3.0582    0.0375    0.1172 HO        1 <0>        0.39586
@<TRIPOS>BOND
     1    1    6 1
     2    2    7 1
     3    3    7 1
     4    4    6 1
     5    4    7 1
     6    5    6 1
     7    5    8 1
     8    7    9 1
     9    1   10 1
    10    1   11 1
    11    1   12 1
    12    2   13 1
    13    2   14 1
    14    2   15 1
    15    3   16 1
    16    3   17 1
    17    3   18 1
    18    4   19 1
    19    4   20 1
    20    5   21 1
    21    5   22 1
    22    6   23 1
    23    8   24 1
    24    9   25 1
@<TRIPOS>SUBSTRUCTURE
     1 <0>         1 GROUP 0 A     ****
