@<TRIPOS>MOLECULE
AlkEthOH_r637
   33    33     1     0     0
SMALL
USER_CHARGES

@<TRIPOS>ATOM
      1 C1         -0.3217    1.9887   -2.0080 CT        1 <0>       -0.10415
      2 C2         -1.6438    1.6275   -1.3250 CT        1 <0>        0.14332
      3 C3          0.8849    1.2271   -1.4662 CT        1 <0>        0.14076
      4 C4         -1.6207    0.0214    0.4493 CT        1 <0>        0.11608
      5 C5         -0.5374   -0.4099    1.4581 CT        1 <0>        0.16000
      6 C6          1.1618   -0.9014   -0.3559 CT        1 <0>        0.35152
      7 C7         -0.4844    0.6001    2.6221 CT        1 <0>       -0.10345
      8 C8         -0.8824   -1.7801    2.0602 CT        1 <0>       -0.10345
      9 C9          0.7877   -2.3701   -0.5708 CT        1 <0>       -0.10826
     10 C10         2.6971   -0.8110   -0.4217 CT        1 <0>       -0.10826
     11 O1         -1.4351    1.3856    0.0631 OS        1 <0>       -0.41778
     12 O2          0.5910   -0.1661   -1.4487 OS        1 <0>       -0.45760
     13 O3          0.8029   -0.4117    0.9434 OS        1 <0>       -0.44465
     14 H1         -0.4301    1.8123   -3.0846 HC        1 <0>        0.04928
     15 H2         -0.1298    3.0610   -1.8812 HC        1 <0>        0.04928
     16 H3         -2.3367    2.4709   -1.4180 H1        1 <0>        0.04146
     17 H4         -2.1185    0.7766   -1.8276 H1        1 <0>        0.04146
     18 H5          1.7540    1.3962   -2.1107 H1        1 <0>        0.04265
     19 H6          1.1278    1.6056   -0.4666 H1        1 <0>        0.04265
     20 H7         -1.6260   -0.6500   -0.4144 H1        1 <0>        0.04519
     21 H8         -2.6136   -0.0445    0.9097 H1        1 <0>        0.04519
     22 H9          0.2791    0.2898    3.3261 HC        1 <0>        0.04485
     23 H10        -1.4500    0.6252    3.1138 HC        1 <0>        0.04485
     24 H11        -0.2456    1.5816    2.2291 HC        1 <0>        0.04485
     25 H12        -0.1102   -2.0679    2.7673 HC        1 <0>        0.04485
     26 H13        -0.9413   -2.5182    1.2660 HC        1 <0>        0.04485
     27 H14        -1.8386   -1.7187    2.5712 HC        1 <0>        0.04485
     28 H15        -0.2935   -2.4815   -0.5320 HC        1 <0>        0.05161
     29 H16         1.2398   -2.9803    0.2078 HC        1 <0>        0.05161
     30 H17         1.1486   -2.7011   -1.5419 HC        1 <0>        0.05161
     31 H18         3.0008    0.2197   -0.2730 HC        1 <0>        0.05161
     32 H19         3.0337   -1.1552   -1.3937 HC        1 <0>        0.05161
     33 H20         3.1251   -1.4346    0.3560 HC        1 <0>        0.05161
@<TRIPOS>BOND
     1    1    2 1
     2    1    3 1
     3    2   11 1
     4    3   12 1
     5    4    5 1
     6    4   11 1
     7    5    7 1
     8    5    8 1
     9    5   13 1
    10    6    9 1
    11    6   10 1
    12    6   12 1
    13    6   13 1
    14    1   14 1
    15    1   15 1
    16    2   16 1
    17    2   17 1
    18    3   18 1
    19    3   19 1
    20    4   20 1
    21    4   21 1
    22    7   22 1
    23    7   23 1
    24    7   24 1
    25    8   25 1
    26    8   26 1
    27    8   27 1
    28    9   28 1
    29    9   29 1
    30    9   30 1
    31   10   31 1
    32   10   32 1
    33   10   33 1
@<TRIPOS>SUBSTRUCTURE
     1 <0>         1 GROUP 0 A     ****
