@<TRIPOS>MOLECULE
AlkEthOH_c544
   25    24     1     0     0
SMALL
USER_CHARGES

@<TRIPOS>ATOM
      1 C1          1.4338    4.6213   -2.1016 CT        1 <0>       -0.10616
      2 C2          2.1674    2.6501   -0.7132 CT        1 <0>       -0.10616
      3 C3         -0.9553    0.4818   -0.2077 CT        1 <0>       -0.13036
      4 C4         -0.3490    1.5118   -3.9233 CT        1 <0>       -0.11485
      5 C5          1.4119    3.1078   -1.9515 CT        1 <0>        0.13418
      6 C6         -1.2082    0.6003   -1.7062 CT        1 <0>        0.14473
      7 C7         -0.0897    1.3641   -2.4285 CT        1 <0>        0.14546
      8 O1         -2.4504    1.2717   -1.9070 OH        1 <0>       -0.58763
      9 O2          0.0656    2.6662   -1.8674 OS        1 <0>       -0.40634
     10 H1          0.9980    5.1135   -1.2269 HC        1 <0>        0.04213
     11 H2          2.4621    4.9769   -2.2273 HC        1 <0>        0.04213
     12 H3          0.8811    4.9373   -2.9933 HC        1 <0>        0.04213
     13 H4          1.7492    3.0953    0.1946 HC        1 <0>        0.04213
     14 H5          3.2238    2.9304   -0.7859 HC        1 <0>        0.04213
     15 H6          2.1378    1.5593   -0.6142 HC        1 <0>        0.04213
     16 H7         -0.8584    1.4672    0.2604 HC        1 <0>        0.04658
     17 H8         -0.0508   -0.0987   -0.0023 HC        1 <0>        0.04658
     18 H9         -1.8018   -0.0117    0.2823 HC        1 <0>        0.04658
     19 H10        -1.2912    2.0347   -4.1123 HC        1 <0>        0.04623
     20 H11         0.4621    2.0550   -4.4201 HC        1 <0>        0.04623
     21 H12        -0.3970    0.5255   -4.3979 HC        1 <0>        0.04623
     22 H13         1.8536    2.6460   -2.8406 H1        1 <0>        0.03443
     23 H14        -1.2996   -0.4020   -2.1404 H1        1 <0>        0.02959
     24 H15         0.8600    0.8372   -2.2840 H1        1 <0>        0.03303
     25 H16        -3.1291    0.7293   -1.4768 HO        1 <0>        0.39887
@<TRIPOS>BOND
     1    1    5 1
     2    2    5 1
     3    3    6 1
     4    4    7 1
     5    5    9 1
     6    6    7 1
     7    6    8 1
     8    7    9 1
     9    1   10 1
    10    1   11 1
    11    1   12 1
    12    2   13 1
    13    2   14 1
    14    2   15 1
    15    3   16 1
    16    3   17 1
    17    3   18 1
    18    4   19 1
    19    4   20 1
    20    4   21 1
    21    5   22 1
    22    6   23 1
    23    7   24 1
    24    8   25 1
@<TRIPOS>SUBSTRUCTURE
     1 <0>         1 GROUP 0 A     ****
