@<TRIPOS>MOLECULE
AlkEthOH_r786
   23    23     1     0     0
SMALL
USER_CHARGES

@<TRIPOS>ATOM
      1 C1         -1.5141    1.4218   -0.2166 CT        1 <0>       -0.09827
      2 C2         -1.6752   -0.0696   -0.4963 CT        1 <0>       -0.10407
      3 C3          0.5722   -1.1439    0.0380 CT        1 <0>       -0.13977
      4 C4         -0.1603    1.8658    0.3137 CT        1 <0>        0.13050
      5 C5         -0.9015   -1.0020    0.4350 CT        1 <0>        0.14257
      6 C6          1.4338    0.0991    0.2712 CT        1 <0>        0.14606
      7 C7          2.8399   -0.1276   -0.2789 CT        1 <0>       -0.09448
      8 O1          0.9108    1.2514   -0.3905 OS        1 <0>       -0.41438
      9 O2         -1.5057   -2.2950    0.3243 OH        1 <0>       -0.60057
     10 H1         -1.7228    1.9570   -1.1519 HC        1 <0>        0.04595
     11 H2         -2.2849    1.7459    0.4935 HC        1 <0>        0.04595
     12 H3         -2.7458   -0.3113   -0.4590 HC        1 <0>        0.04961
     13 H4         -1.3835   -0.2748   -1.5353 HC        1 <0>        0.04961
     14 H5          1.0118   -1.9892    0.5841 HC        1 <0>        0.05526
     15 H6          0.6166   -1.4316   -1.0216 HC        1 <0>        0.05526
     16 H7         -0.0663    2.9480    0.1700 H1        1 <0>        0.04328
     17 H8         -0.0861    1.6933    1.3942 H1        1 <0>        0.04328
     18 H9         -1.0040   -0.6852    1.4787 H1        1 <0>        0.07401
     19 H10         1.5272    0.2943    1.3471 H1        1 <0>        0.03688
     20 H11         2.7908   -0.3255   -1.3485 HC        1 <0>        0.04558
     21 H12         3.2991   -0.9794    0.2203 HC        1 <0>        0.04558
     22 H13         3.4507    0.7576   -0.1079 HC        1 <0>        0.04558
     23 H14        -1.4223   -2.5532   -0.6049 HO        1 <0>        0.39658
@<TRIPOS>BOND
     1    1    2 1
     2    1    4 1
     3    2    5 1
     4    3    5 1
     5    3    6 1
     6    4    8 1
     7    5    9 1
     8    6    7 1
     9    6    8 1
    10    1   10 1
    11    1   11 1
    12    2   12 1
    13    2   13 1
    14    3   14 1
    15    3   15 1
    16    4   16 1
    17    4   17 1
    18    5   18 1
    19    6   19 1
    20    7   20 1
    21    7   21 1
    22    7   22 1
    23    9   23 1
@<TRIPOS>SUBSTRUCTURE
     1 <0>         1 GROUP 0 A     ****
