@<TRIPOS>MOLECULE
AlkEthOH_c852
   21    20     1     0     0
SMALL
USER_CHARGES

@<TRIPOS>ATOM
      1 C1         -0.2607   -1.3595   -2.3794 CT        1 <0>       -0.13355
      2 C2         -1.7838    0.7564    0.6912 CT        1 <0>       -0.11927
      3 C3          1.2011   -0.4360    2.4648 CT        1 <0>        0.13169
      4 C4          0.1908   -0.2103   -1.4924 CT        1 <0>        0.35426
      5 C5         -0.2908    0.4184    0.8006 CT        1 <0>        0.53263
      6 O1          1.5576    0.0474   -1.7968 OH        1 <0>       -0.59820
      7 O2          0.4775    1.6089    0.6030 OH        1 <0>       -0.62529
      8 O3         -0.1345   -0.0620    2.1517 OS        1 <0>       -0.45113
      9 O4          0.0117   -0.6251   -0.1397 OS        1 <0>       -0.42122
     10 H1          0.3196   -2.2646   -2.1656 HC        1 <0>        0.05299
     11 H2         -1.3148   -1.5975   -2.2050 HC        1 <0>        0.05299
     12 H3         -0.1147   -1.1195   -3.4374 HC        1 <0>        0.05299
     13 H4         -2.4176   -0.1237    0.8352 HC        1 <0>        0.05935
     14 H5         -2.0175    1.1669   -0.2978 HC        1 <0>        0.05935
     15 H6         -2.0698    1.5029    1.4403 HC        1 <0>        0.05935
     16 H7          1.2489   -0.7888    3.4979 H1        1 <0>        0.04363
     17 H8          1.8621    0.4242    2.3313 H1        1 <0>        0.04363
     18 H9          1.5121   -1.2395    1.7930 H1        1 <0>        0.04363
     19 H10        -0.4063    0.6758   -1.7299 H2        1 <0>        0.03601
     20 H11         1.6002    0.2829   -2.7390 HO        1 <0>        0.40291
     21 H12         0.2376    2.2597    1.2831 HO        1 <0>        0.42325
@<TRIPOS>BOND
     1    1    4 1
     2    2    5 1
     3    3    8 1
     4    4    6 1
     5    4    9 1
     6    5    7 1
     7    5    8 1
     8    5    9 1
     9    1   10 1
    10    1   11 1
    11    1   12 1
    12    2   13 1
    13    2   14 1
    14    2   15 1
    15    3   16 1
    16    3   17 1
    17    3   18 1
    18    4   19 1
    19    6   20 1
    20    7   21 1
@<TRIPOS>SUBSTRUCTURE
     1 <0>         1 GROUP 0 A     ****
