@<TRIPOS>MOLECULE
AlkEthOH_r44
   23    23     1     0     0
SMALL
USER_CHARGES

@<TRIPOS>ATOM
      1 C1          0.8812    1.8228   -0.6953 CT        1 <0>       -0.06753
      2 C2          1.4622    0.4142   -0.8573 CT        1 <0>       -0.07250
      3 C3         -0.4538    1.9508    0.0385 CT        1 <0>       -0.11221
      4 C4          0.4688   -0.6473   -1.3356 CT        1 <0>       -0.10354
      5 C5         -0.4603    1.4069    1.4652 CT        1 <0>        0.13378
      6 C6         -0.8751   -0.8708    0.8693 CT        1 <0>        0.13334
      7 C7         -0.0717   -1.5645   -0.2284 CT        1 <0>        0.12005
      8 O1         -0.0534    0.0491    1.5739 OS        1 <0>       -0.41771
      9 O2         -0.8979   -2.5612   -0.8302 OH        1 <0>       -0.60579
     10 H1          1.6289    2.4493   -0.1930 HC        1 <0>        0.03689
     11 H2          0.7507    2.2550   -1.6963 HC        1 <0>        0.03689
     12 H3          2.2669    0.4878   -1.6010 HC        1 <0>        0.04781
     13 H4          1.9575    0.0970    0.0675 HC        1 <0>        0.04781
     14 H5         -0.7261    3.0129    0.0764 HC        1 <0>        0.04633
     15 H6         -1.2366    1.4675   -0.5552 HC        1 <0>        0.04633
     16 H7         -0.3558   -0.2009   -1.9042 HC        1 <0>        0.04278
     17 H8          0.9845   -1.2917   -2.0615 HC        1 <0>        0.04278
     18 H9          0.2290    1.9963    2.0793 H1        1 <0>        0.04550
     19 H10        -1.4565    1.5183    1.9090 H1        1 <0>        0.04550
     20 H11        -1.7921   -0.4171    0.4742 H1        1 <0>        0.05472
     21 H12        -1.2120   -1.6232    1.5924 H1        1 <0>        0.05472
     22 H13         0.7859   -2.0818    0.2326 H1        1 <0>        0.04233
     23 H14        -0.3328   -3.0479   -1.4490 HO        1 <0>        0.40172
@<TRIPOS>BOND
     1    1    2 1
     2    1    3 1
     3    2    4 1
     4    3    5 1
     5    4    7 1
     6    5    8 1
     7    6    7 1
     8    6    8 1
     9    7    9 1
    10    1   10 1
    11    1   11 1
    12    2   12 1
    13    2   13 1
    14    3   14 1
    15    3   15 1
    16    4   16 1
    17    4   17 1
    18    5   18 1
    19    5   19 1
    20    6   20 1
    21    6   21 1
    22    7   22 1
    23    9   23 1
@<TRIPOS>SUBSTRUCTURE
     1 <0>         1 GROUP 0 A     ****
