@<TRIPOS>MOLECULE
AlkEthOH_r851
   25    25     1     0     0
SMALL
USER_CHARGES

@<TRIPOS>ATOM
      1 C1          0.8835   -0.4861   -0.4293 CT        1 <0>       -0.07397
      2 C2          0.8783   -1.9678   -0.0651 CT        1 <0>       -0.07173
      3 C3          0.8942   -0.2788   -1.9437 CT        1 <0>       -0.06195
      4 C4          2.0622   -2.5059   -2.2345 CT        1 <0>       -0.09754
      5 C5          2.0528   -2.7138   -0.7101 CT        1 <0>       -0.06276
      6 C6          2.0572   -1.0184   -2.6229 CT        1 <0>        0.14921
      7 C7          1.9953   -4.2030   -0.3709 CT        1 <0>       -0.09050
      8 C8          1.9773   -0.8566   -4.1421 CT        1 <0>       -0.12277
      9 O1          3.2790   -0.4168   -2.1847 OH        1 <0>       -0.59651
     10 H1         -0.0003   -0.0003   -0.0000 HC        1 <0>        0.04765
     11 H2          1.7596   -0.0012    0.0186 HC        1 <0>        0.04765
     12 H3          0.9232   -2.0718    1.0256 HC        1 <0>        0.03766
     13 H4         -0.0709   -2.4153   -0.3874 HC        1 <0>        0.03766
     14 H5         -0.0612   -0.6248   -2.3578 HC        1 <0>        0.04732
     15 H6          0.9652    0.7978   -2.1426 HC        1 <0>        0.04732
     16 H7          2.9552   -2.9933   -2.6471 HC        1 <0>        0.04356
     17 H8          1.1893   -3.0044   -2.6763 HC        1 <0>        0.04356
     18 H9          2.9871   -2.3132   -0.2956 HC        1 <0>        0.05728
     19 H10         1.0788   -4.6357   -0.7676 HC        1 <0>        0.03270
     20 H11         2.0147   -4.3354    0.7092 HC        1 <0>        0.03270
     21 H12         2.8508   -4.7136   -0.8093 HC        1 <0>        0.03270
     22 H13         2.8052   -1.3841   -4.6110 HC        1 <0>        0.04177
     23 H14         2.0314    0.1985   -4.4016 HC        1 <0>        0.04177
     24 H15         1.0380   -1.2679   -4.5056 HC        1 <0>        0.04177
     25 H16         3.9924   -0.9002   -2.6261 HO        1 <0>        0.39545
@<TRIPOS>BOND
     1    1    2 1
     2    1    3 1
     3    2    5 1
     4    3    6 1
     5    4    5 1
     6    4    6 1
     7    5    7 1
     8    6    8 1
     9    6    9 1
    10    1   10 1
    11    1   11 1
    12    2   12 1
    13    2   13 1
    14    3   14 1
    15    3   15 1
    16    4   16 1
    17    4   17 1
    18    5   18 1
    19    7   19 1
    20    7   20 1
    21    7   21 1
    22    8   22 1
    23    8   23 1
    24    8   24 1
    25    9   25 1
@<TRIPOS>SUBSTRUCTURE
     1 <0>         1 GROUP 0 A     ****
