@<TRIPOS>MOLECULE
AlkEthOH_r96
   23    23     1     0     0
SMALL
USER_CHARGES

@<TRIPOS>ATOM
      1 C1         -0.8321   -0.6892   -1.7658 CT        1 <0>       -0.10274
      2 C2         -0.1477   -1.6867   -0.8190 CT        1 <0>       -0.10274
      3 C3          0.9732    1.2632    1.4814 CT        1 <0>       -0.10892
      4 C4         -0.1336    0.6671   -1.8856 CT        1 <0>        0.13561
      5 C5         -0.7524   -1.7267    0.5892 CT        1 <0>        0.13561
      6 C6          1.1291    1.4722   -0.0240 CT        1 <0>        0.13497
      7 C7          0.5977   -0.1818    1.8092 CT        1 <0>        0.13497
      8 O1         -0.1500    1.3554   -0.6426 OS        1 <0>       -0.40886
      9 O2         -0.6842   -0.4734    1.2573 OS        1 <0>       -0.40886
     10 H1         -0.8585   -1.1320   -2.7692 HC        1 <0>        0.04602
     11 H2         -1.8735   -0.5409   -1.4559 HC        1 <0>        0.04602
     12 H3         -0.2585   -2.6919   -1.2449 HC        1 <0>        0.04602
     13 H4          0.9273   -1.4845   -0.7753 HC        1 <0>        0.04602
     14 H5          1.9120    1.5165    1.9854 HC        1 <0>        0.06074
     15 H6          0.1870    1.9297    1.8555 HC        1 <0>        0.06074
     16 H7          0.8782    0.5588   -2.2935 H1        1 <0>        0.04047
     17 H8         -0.6957    1.2826   -2.5967 H1        1 <0>        0.04047
     18 H9         -1.8126   -1.9934    0.5160 H1        1 <0>        0.04047
     19 H10        -0.2727   -2.5039    1.1961 H1        1 <0>        0.04047
     20 H11         1.5058    2.4802   -0.2247 H1        1 <0>        0.03088
     21 H12         1.8536    0.7517   -0.4213 H1        1 <0>        0.03088
     22 H13         1.3730   -0.8653    1.4434 H1        1 <0>        0.03088
     23 H14         0.5278   -0.3072    2.8948 H1        1 <0>        0.03088
@<TRIPOS>BOND
     1    1    2 1
     2    1    4 1
     3    2    5 1
     4    3    6 1
     5    3    7 1
     6    4    8 1
     7    5    9 1
     8    6    8 1
     9    7    9 1
    10    1   10 1
    11    1   11 1
    12    2   12 1
    13    2   13 1
    14    3   14 1
    15    3   15 1
    16    4   16 1
    17    4   17 1
    18    5   18 1
    19    5   19 1
    20    6   20 1
    21    6   21 1
    22    7   22 1
    23    7   23 1
@<TRIPOS>SUBSTRUCTURE
     1 <0>         1 GROUP 0 A     ****
