@<TRIPOS>MOLECULE
AlkEthOH_c14
   16    15     1     0     0
SMALL
USER_CHARGES

@<TRIPOS>ATOM
      1 C1          0.9511   -0.4136   -0.3581 CT        1 <0>       -0.08471
      2 C2          2.0726    0.6018   -0.1689 CT        1 <0>       -0.08465
      3 C3          0.8043   -0.8239   -1.8164 CT        1 <0>        0.13394
      4 C4          2.2475    0.9797    1.2950 CT        1 <0>        0.13394
      5 O1         -0.2626   -1.7560   -1.9262 OH        1 <0>       -0.60363
      6 O2          3.3128    1.9134    1.4045 OH        1 <0>       -0.60363
      7 H1          1.1390   -1.3054    0.2531 HC        1 <0>        0.05455
      8 H2         -0.0000    0.0000    0.0000 HC        1 <0>        0.05455
      9 H3          1.8691    1.5062   -0.7557 HC        1 <0>        0.05455
     10 H4          3.0177    0.2003   -0.5557 HC        1 <0>        0.05455
     11 H5          0.5755    0.0428   -2.4448 H1        1 <0>        0.02280
     12 H6          1.7202   -1.2983   -2.1831 H1        1 <0>        0.02280
     13 H7          2.4920    0.1001    1.8990 H1        1 <0>        0.02280
     14 H8          1.3374    1.4419    1.6907 H1        1 <0>        0.02280
     15 H9         -0.3295   -1.9965   -2.8645 HO        1 <0>        0.39967
     16 H10         3.3978    2.1330    2.3465 HO        1 <0>        0.39967
@<TRIPOS>BOND
     1    1    2 1
     2    1    3 1
     3    2    4 1
     4    3    5 1
     5    4    6 1
     6    1    7 1
     7    1    8 1
     8    2    9 1
     9    2   10 1
    10    3   11 1
    11    3   12 1
    12    4   13 1
    13    4   14 1
    14    5   15 1
    15    6   16 1
@<TRIPOS>SUBSTRUCTURE
     1 <0>         1 GROUP 0 A     ****
