@<TRIPOS>MOLECULE
AlkEthOH_c404
   31    30     1     0     0
SMALL
USER_CHARGES

@<TRIPOS>ATOM
      1 C1          0.3715    0.9887    2.0809 CT        1 <0>       -0.09527
      2 C2         -1.5357   -0.5635    2.5251 CT        1 <0>       -0.09527
      3 C3          3.3833   -0.6560   -0.6002 CT        1 <0>       -0.10535
      4 C4          2.4354   -1.5471   -2.7587 CT        1 <0>       -0.10535
      5 C5         -0.6753    0.3065   -2.3276 CT        1 <0>       -0.13916
      6 C6         -0.9613   -0.0410    0.1341 CT        1 <0>       -0.09087
      7 C7         -0.3917   -0.2287    1.5613 CT        1 <0>       -0.06249
      8 C8          2.2522   -0.5634   -1.6130 CT        1 <0>        0.15119
      9 C9          0.0678    0.2425   -0.9861 CT        1 <0>        0.35340
     10 O1          0.6573    1.5156   -0.7193 OH        1 <0>       -0.62909
     11 O2          1.0189   -0.8288   -0.9617 OS        1 <0>       -0.42627
     12 H1         -0.2739    1.8738    2.1009 HC        1 <0>        0.03490
     13 H2          1.2359    1.2167    1.4486 HC        1 <0>        0.03490
     14 H3          0.7219    0.8300    3.1049 HC        1 <0>        0.03490
     15 H4         -2.2593    0.2572    2.5716 HC        1 <0>        0.03490
     16 H5         -1.1612   -0.7443    3.5386 HC        1 <0>        0.03490
     17 H6         -2.0722   -1.4602    2.1969 HC        1 <0>        0.03490
     18 H7          3.4614   -1.6646   -0.1831 HC        1 <0>        0.04048
     19 H8          4.3380   -0.3968   -1.0704 HC        1 <0>        0.04048
     20 H9          3.2355    0.0529    0.2221 HC        1 <0>        0.04048
     21 H10         2.4909   -2.5770   -2.3930 HC        1 <0>        0.04048
     22 H11         3.3539   -1.3219   -3.3112 HC        1 <0>        0.04048
     23 H12         1.6109   -1.4742   -3.4764 HC        1 <0>        0.04048
     24 H13         0.0137    0.5060   -3.1548 HC        1 <0>        0.04826
     25 H14        -1.2142   -0.6269   -2.5238 HC        1 <0>        0.04826
     26 H15        -1.4287    1.1017   -2.3294 HC        1 <0>        0.04826
     27 H16        -1.7052    0.7669    0.1537 HC        1 <0>        0.04969
     28 H17        -1.4973   -0.9664   -0.1184 HC        1 <0>        0.04969
     29 H18         0.2939   -1.0851    1.5602 HC        1 <0>        0.06979
     30 H19         2.2005    0.4553   -2.0109 H1        1 <0>        0.06291
     31 H20        -0.0503    2.1803   -0.6792 HO        1 <0>        0.41539
@<TRIPOS>BOND
     1    1    7 1
     2    2    7 1
     3    3    8 1
     4    4    8 1
     5    5    9 1
     6    6    7 1
     7    6    9 1
     8    8   11 1
     9    9   10 1
    10    9   11 1
    11    1   12 1
    12    1   13 1
    13    1   14 1
    14    2   15 1
    15    2   16 1
    16    2   17 1
    17    3   18 1
    18    3   19 1
    19    3   20 1
    20    4   21 1
    21    4   22 1
    22    4   23 1
    23    5   24 1
    24    5   25 1
    25    5   26 1
    26    6   27 1
    27    6   28 1
    28    7   29 1
    29    8   30 1
    30   10   31 1
@<TRIPOS>SUBSTRUCTURE
     1 <0>         1 GROUP 0 A     ****
