@<TRIPOS>MOLECULE
AlkEthOH_r904
   25    25     1     0     0
SMALL
USER_CHARGES

@<TRIPOS>ATOM
      1 C1          1.4272    0.1804   -1.2971 CT        1 <0>       -0.07498
      2 C2          1.5234   -1.3096   -0.9512 CT        1 <0>       -0.06611
      3 C3          0.0406    0.6609   -1.7370 CT        1 <0>       -0.06943
      4 C4          0.4316   -1.8968   -0.0563 CT        1 <0>       -0.11005
      5 C5         -0.7460    1.4132   -0.6539 CT        1 <0>       -0.08994
      6 C6          0.2828   -1.2264    1.3074 CT        1 <0>        0.13552
      7 C7         -1.1166    0.5799    0.5780 CT        1 <0>        0.13913
      8 C8         -1.9225    1.4191    1.5654 CT        1 <0>       -0.10560
      9 O1          0.0796    0.1793    1.2447 OS        1 <0>       -0.41908
     10 H1          1.8070    0.7888   -0.4684 HC        1 <0>        0.04639
     11 H2          2.1272    0.3579   -2.1246 HC        1 <0>        0.04639
     12 H3          1.5218   -1.8784   -1.8903 HC        1 <0>        0.03431
     13 H4          2.5023   -1.4942   -0.4909 HC        1 <0>        0.03431
     14 H5          0.1810    1.3646   -2.5682 HC        1 <0>        0.03566
     15 H6         -0.5570   -0.1631   -2.1426 HC        1 <0>        0.03566
     16 H7         -0.5212   -1.8758   -0.5951 HC        1 <0>        0.04244
     17 H8          0.6529   -2.9590    0.1067 HC        1 <0>        0.04244
     18 H9         -0.1488    2.2802   -0.3418 HC        1 <0>        0.04615
     19 H10        -1.6629    1.8069   -1.1099 HC        1 <0>        0.04615
     20 H11        -0.5399   -1.6840    1.8689 H1        1 <0>        0.04302
     21 H12         1.1962   -1.3895    1.8897 H1        1 <0>        0.04302
     22 H13        -1.7316   -0.2783    0.2834 H1        1 <0>        0.04043
     23 H14        -1.3389    2.2833    1.8798 HC        1 <0>        0.04139
     24 H15        -2.1731    0.8217    2.4410 HC        1 <0>        0.04139
     25 H16        -2.8424    1.7633    1.0944 HC        1 <0>        0.04139
@<TRIPOS>BOND
     1    1    2 1
     2    1    3 1
     3    2    4 1
     4    3    5 1
     5    4    6 1
     6    5    7 1
     7    6    9 1
     8    7    8 1
     9    7    9 1
    10    1   10 1
    11    1   11 1
    12    2   12 1
    13    2   13 1
    14    3   14 1
    15    3   15 1
    16    4   16 1
    17    4   17 1
    18    5   18 1
    19    5   19 1
    20    6   20 1
    21    6   21 1
    22    7   22 1
    23    8   23 1
    24    8   24 1
    25    8   25 1
@<TRIPOS>SUBSTRUCTURE
     1 <0>         1 GROUP 0 A     ****
