@<TRIPOS>MOLECULE
AlkEthOH_c333
   25    24     1     0     0
SMALL
USER_CHARGES

@<TRIPOS>ATOM
      1 C1          0.2807    0.8790   -0.7444 CT        1 <0>       -0.09062
      2 C2         -0.4068    3.2163   -1.3080 CT        1 <0>       -0.09062
      3 C3         -0.0192    1.6440    2.2492 CT        1 <0>       -0.10214
      4 C4         -0.5541    6.1725    1.9091 CT        1 <0>       -0.12599
      5 C5         -0.4527    2.1211   -0.2344 CT        1 <0>       -0.08327
      6 C6          0.1204    2.6388    1.1017 CT        1 <0>        0.15419
      7 C7          0.2892    4.9579    1.5518 CT        1 <0>        0.33802
      8 O1          1.3154    4.7817    2.5238 OH        1 <0>       -0.63090
      9 O2         -0.5788    3.8302    1.4669 OS        1 <0>       -0.41866
     10 H1          1.3438    1.0859   -0.9074 HC        1 <0>        0.03452
     11 H2          0.1973    0.0480   -0.0376 HC        1 <0>        0.03452
     12 H3         -0.1462    0.5370   -1.6936 HC        1 <0>        0.03452
     13 H4          0.6219    3.5300   -1.5136 HC        1 <0>        0.03452
     14 H5         -0.9595    4.1039   -0.9810 HC        1 <0>        0.03452
     15 H6         -0.8508    2.8684   -2.2469 HC        1 <0>        0.03452
     16 H7         -1.0600    1.3510    2.4113 HC        1 <0>        0.04459
     17 H8          0.5584    0.7363    2.0424 HC        1 <0>        0.04459
     18 H9          0.3791    2.0634    3.1795 HC        1 <0>        0.04459
     19 H10        -1.0469    6.0344    2.8766 HC        1 <0>        0.05274
     20 H11         0.0712    7.0690    1.9879 HC        1 <0>        0.05274
     21 H12        -1.3097    6.3646    1.1411 HC        1 <0>        0.05274
     22 H13        -1.5100    1.8637   -0.0871 HC        1 <0>        0.06015
     23 H14         1.1771    2.9031    0.9762 H1        1 <0>        0.05383
     24 H15         0.7669    5.1292    0.5804 H2        1 <0>        0.02705
     25 H16         1.8697    5.5799    2.5295 HO        1 <0>        0.40985
@<TRIPOS>BOND
     1    1    5 1
     2    2    5 1
     3    3    6 1
     4    4    7 1
     5    5    6 1
     6    6    9 1
     7    7    8 1
     8    7    9 1
     9    1   10 1
    10    1   11 1
    11    1   12 1
    12    2   13 1
    13    2   14 1
    14    2   15 1
    15    3   16 1
    16    3   17 1
    17    3   18 1
    18    4   19 1
    19    4   20 1
    20    4   21 1
    21    5   22 1
    22    6   23 1
    23    7   24 1
    24    8   25 1
@<TRIPOS>SUBSTRUCTURE
     1 <0>         1 GROUP 0 A     ****
