@<TRIPOS>MOLECULE
AlkEthOH_r101
   24    24     1     0     0
SMALL
USER_CHARGES

@<TRIPOS>ATOM
      1 C1         -0.2015   -0.8152   -1.6636 CT        1 <0>       -0.07291
      2 C2         -0.3277   -1.9961   -0.6942 CT        1 <0>       -0.09587
      3 C3         -1.1256    0.3704   -1.3750 CT        1 <0>       -0.09822
      4 C4          0.7728   -2.0599    0.3652 CT        1 <0>        0.13777
      5 C5          0.3662    1.7074    0.2476 CT        1 <0>        0.14227
      6 C6          1.4964   -0.0455    1.4137 CT        1 <0>        0.31847
      7 C7         -0.9959    1.0607   -0.0135 CT        1 <0>        0.10580
      8 O1          0.5471   -1.1077    1.3982 OS        1 <0>       -0.45308
      9 O2          1.4576    0.7964    0.2653 OS        1 <0>       -0.44376
     10 O3         -1.9895    2.0895    0.0564 OH        1 <0>       -0.60778
     11 H1          0.8390   -0.4888   -1.7593 HC        1 <0>        0.04829
     12 H2         -0.4776   -1.1820   -2.6619 HC        1 <0>        0.04829
     13 H3         -1.3154   -1.9952   -0.2191 HC        1 <0>        0.04740
     14 H4         -0.2573   -2.9177   -1.2861 HC        1 <0>        0.04740
     15 H5         -0.9841    1.1197   -2.1658 HC        1 <0>        0.04019
     16 H6         -2.1665    0.0389   -1.4934 HC        1 <0>        0.04019
     17 H7          0.7325   -3.0455    0.8420 H1        1 <0>        0.04253
     18 H8          1.7690   -1.9631   -0.0830 H1        1 <0>        0.04253
     19 H9          0.5708    2.4405   -0.5422 H1        1 <0>        0.05832
     20 H10         0.3496    2.2853    1.1803 H1        1 <0>        0.05832
     21 H11         1.3313    0.5490    2.3192 H2        1 <0>        0.06394
     22 H12         2.5048   -0.4675    1.4928 H2        1 <0>        0.06394
     23 H13        -1.2443    0.3427    0.7799 H1        1 <0>        0.06414
     24 H14        -2.8440    1.6458   -0.0412 HO        1 <0>        0.40183
@<TRIPOS>BOND
     1    1    2 1
     2    1    3 1
     3    2    4 1
     4    3    7 1
     5    4    8 1
     6    5    7 1
     7    5    9 1
     8    6    8 1
     9    6    9 1
    10    7   10 1
    11    1   11 1
    12    1   12 1
    13    2   13 1
    14    2   14 1
    15    3   15 1
    16    3   16 1
    17    4   17 1
    18    4   18 1
    19    5   19 1
    20    5   20 1
    21    6   21 1
    22    6   22 1
    23    7   23 1
    24   10   24 1
@<TRIPOS>SUBSTRUCTURE
     1 <0>         1 GROUP 0 A     ****
