@<TRIPOS>MOLECULE
AlkEthOH_r625
   29    29     1     0     0
SMALL
USER_CHARGES

@<TRIPOS>ATOM
      1 C1         -0.2334    1.9218   -1.3448 CT        1 <0>       -0.06592
      2 C2         -0.4187    2.3820    0.1005 CT        1 <0>       -0.11266
      3 C3         -0.0543    0.4187   -1.5916 CT        1 <0>       -0.11389
      4 C4         -1.5926    1.7379    0.8340 CT        1 <0>        0.13236
      5 C5         -0.4310   -0.2464    1.4925 CT        1 <0>        0.13065
      6 C6          0.9781   -0.2750   -0.6812 CT        1 <0>        0.16137
      7 C7          0.4091   -1.1062    0.5183 CT        1 <0>       -0.05879
      8 C8         -0.4419   -2.2974    0.0209 CT        1 <0>       -0.08523
      9 C9          1.5940   -1.6926    1.3226 CT        1 <0>       -0.08523
     10 O1         -1.5613    0.3164    0.8359 OS        1 <0>       -0.41603
     11 O2          1.7520   -1.1591   -1.5071 OH        1 <0>       -0.60523
     12 H1         -1.0879    2.2675   -1.9406 HC        1 <0>        0.03704
     13 H2          0.6448    2.4416   -1.7495 HC        1 <0>        0.03704
     14 H3          0.5128    2.2130    0.6506 HC        1 <0>        0.04428
     15 H4         -0.5673    3.4691    0.1017 HC        1 <0>        0.04428
     16 H5         -1.0292   -0.0747   -1.5413 HC        1 <0>        0.05749
     17 H6          0.2510    0.3071   -2.6414 HC        1 <0>        0.05749
     18 H7         -1.6404    2.0982    1.8682 H1        1 <0>        0.04492
     19 H8         -2.5285    2.0354    0.3489 H1        1 <0>        0.04492
     20 H9         -0.8233   -0.8787    2.2987 H1        1 <0>        0.04168
     21 H10         0.1875    0.5158    1.9817 H1        1 <0>        0.04168
     22 H11         1.6875    0.4717   -0.2985 H1        1 <0>        0.02547
     23 H12         0.1532   -2.8931   -0.6596 HC        1 <0>        0.04095
     24 H13        -1.3166   -1.9143   -0.4889 HC        1 <0>        0.04095
     25 H14        -0.7405   -2.8945    0.8731 HC        1 <0>        0.04095
     26 H15         2.1979   -2.2995    0.6610 HC        1 <0>        0.04095
     27 H16         1.2019   -2.2979    2.1292 HC        1 <0>        0.04095
     28 H17         2.1825   -0.8768    1.7209 HC        1 <0>        0.04095
     29 H18         2.1718   -0.5992   -2.1739 HO        1 <0>        0.39661
@<TRIPOS>BOND
     1    1    2 1
     2    1    3 1
     3    2    4 1
     4    3    6 1
     5    4   10 1
     6    5    7 1
     7    5   10 1
     8    6    7 1
     9    6   11 1
    10    7    8 1
    11    7    9 1
    12    1   12 1
    13    1   13 1
    14    2   14 1
    15    2   15 1
    16    3   16 1
    17    3   17 1
    18    4   18 1
    19    4   19 1
    20    5   20 1
    21    5   21 1
    22    6   22 1
    23    8   23 1
    24    8   24 1
    25    8   25 1
    26    9   26 1
    27    9   27 1
    28    9   28 1
    29   11   29 1
@<TRIPOS>SUBSTRUCTURE
     1 <0>         1 GROUP 0 A     ****
