@<TRIPOS>MOLECULE
AlkEthOH_c1026
   27    26     1     0     0
SMALL
USER_CHARGES

@<TRIPOS>ATOM
      1 C1         -0.7518   -1.8104    2.8046 CT        1 <0>       -0.09133
      2 C2          1.3003    0.4852   -2.4242 CT        1 <0>       -0.13028
      3 C3         -1.4927    0.1351   -1.1144 CT        1 <0>       -0.08837
      4 C4         -0.2072    2.1009   -0.2630 CT        1 <0>       -0.08837
      5 C5         -0.5634   -1.4519    1.3369 CT        1 <0>       -0.07870
      6 C6         -0.3623    0.0571    1.1569 CT        1 <0>       -0.07114
      7 C7          1.0466   -0.0044   -0.9990 CT        1 <0>        0.14847
      8 C8         -0.2408    0.5559   -0.3187 CT        1 <0>       -0.04027
      9 O1          2.1888    0.3344   -0.2095 OH        1 <0>       -0.60196
     10 H1         -1.6101   -1.2812    3.2308 HC        1 <0>        0.03216
     11 H2         -0.9140   -2.8860    2.9285 HC        1 <0>        0.03216
     12 H3          0.1375   -1.5331    3.3792 HC        1 <0>        0.03216
     13 H4          1.3678    1.5767   -2.4698 HC        1 <0>        0.04229
     14 H5          2.2665    0.1098   -2.7812 HC        1 <0>        0.04229
     15 H6          0.5316    0.1427   -3.1213 HC        1 <0>        0.04229
     16 H7         -1.5665   -0.9562   -1.1851 HC        1 <0>        0.03693
     17 H8         -1.4767    0.5368   -2.1328 HC        1 <0>        0.03693
     18 H9         -2.4130    0.4882   -0.6370 HC        1 <0>        0.03693
     19 H10         0.6644    2.4634    0.2926 HC        1 <0>        0.03693
     20 H11        -0.1767    2.5437   -1.2640 HC        1 <0>        0.03693
     21 H12        -1.1019    2.4954    0.2329 HC        1 <0>        0.03693
     22 H13         0.3025   -2.0027    0.9560 HC        1 <0>        0.03651
     23 H14        -1.4423   -1.7916    0.7798 HC        1 <0>        0.03651
     24 H15         0.5317    0.3596    1.7184 HC        1 <0>        0.04864
     25 H16        -1.2038    0.5759    1.6370 HC        1 <0>        0.04864
     26 H17         0.9914   -1.0987   -1.0309 H1        1 <0>        0.02971
     27 H18         2.9437   -0.1170   -0.6152 HO        1 <0>        0.39701
@<TRIPOS>BOND
     1    1    5 1
     2    2    7 1
     3    3    8 1
     4    4    8 1
     5    5    6 1
     6    6    8 1
     7    7    8 1
     8    7    9 1
     9    1   10 1
    10    1   11 1
    11    1   12 1
    12    2   13 1
    13    2   14 1
    14    2   15 1
    15    3   16 1
    16    3   17 1
    17    3   18 1
    18    4   19 1
    19    4   20 1
    20    4   21 1
    21    5   22 1
    22    5   23 1
    23    6   24 1
    24    6   25 1
    25    7   26 1
    26    9   27 1
@<TRIPOS>SUBSTRUCTURE
     1 <0>         1 GROUP 0 A     ****
