@<TRIPOS>MOLECULE
AlkEthOH_r67
   26    26     1     0     0
SMALL
USER_CHARGES

@<TRIPOS>ATOM
      1 C1          0.4381    0.3470    2.1340 CT        1 <0>       -0.07003
      2 C2         -1.0463    0.1220    1.8375 CT        1 <0>       -0.07330
      3 C3          1.4074    0.5620    0.9722 CT        1 <0>       -0.08185
      4 C4         -1.7331    1.1737    0.9592 CT        1 <0>       -0.09660
      5 C5          1.6726   -0.6435    0.0678 CT        1 <0>       -0.09831
      6 C6         -1.8074    0.7975   -0.5203 CT        1 <0>        0.12646
      7 C7          0.0065   -0.0711   -1.8131 CT        1 <0>        0.13798
      8 C8          0.5476   -1.1303   -0.8514 CT        1 <0>        0.10751
      9 O1         -0.5624    1.0516   -1.1563 OS        1 <0>       -0.41988
     10 O2          1.0771   -2.2089   -1.6295 OH        1 <0>       -0.60556
     11 H1          0.5124    1.2295    2.7839 HC        1 <0>        0.03525
     12 H2          0.7966   -0.4949    2.7402 HC        1 <0>        0.03525
     13 H3         -1.2216   -0.8867    1.4547 HC        1 <0>        0.03509
     14 H4         -1.5534    0.1373    2.8127 HC        1 <0>        0.03509
     15 H5          1.1351    1.4490    0.3952 HC        1 <0>        0.05418
     16 H6          2.3748    0.8230    1.4247 HC        1 <0>        0.05418
     17 H7         -2.7655    1.2757    1.3173 HC        1 <0>        0.05134
     18 H8         -1.2494    2.1488    1.0871 HC        1 <0>        0.05134
     19 H9          2.5432   -0.4056   -0.5597 HC        1 <0>        0.04161
     20 H10         2.0051   -1.4874    0.6874 HC        1 <0>        0.04161
     21 H11        -2.1528   -0.2340   -0.6558 H1        1 <0>        0.04082
     22 H12        -2.5427    1.4468   -1.0085 H1        1 <0>        0.04082
     23 H13         0.8258    0.2977   -2.4416 H1        1 <0>        0.05948
     24 H14        -0.7234   -0.5059   -2.5078 H1        1 <0>        0.05948
     25 H15        -0.2570   -1.5551   -0.2507 H1        1 <0>        0.03562
     26 H16         1.3516   -2.8885   -0.9972 HO        1 <0>        0.40242
@<TRIPOS>BOND
     1    1    2 1
     2    1    3 1
     3    2    4 1
     4    3    5 1
     5    4    6 1
     6    5    8 1
     7    6    9 1
     8    7    8 1
     9    7    9 1
    10    8   10 1
    11    1   11 1
    12    1   12 1
    13    2   13 1
    14    2   14 1
    15    3   15 1
    16    3   16 1
    17    4   17 1
    18    4   18 1
    19    5   19 1
    20    5   20 1
    21    6   21 1
    22    6   22 1
    23    7   23 1
    24    7   24 1
    25    8   25 1
    26   10   26 1
@<TRIPOS>SUBSTRUCTURE
     1 <0>         1 GROUP 0 A     ****
