@<TRIPOS>MOLECULE
AlkEthOH_c613
   31    30     1     0     0
SMALL
USER_CHARGES

@<TRIPOS>ATOM
      1 C1         -0.4861    0.3780   -0.9588 CT        1 <0>       -0.11987
      2 C2         -3.4053   -0.8471    2.2799 CT        1 <0>       -0.13027
      3 C3         -5.0959    0.9014   -0.9379 CT        1 <0>       -0.08605
      4 C4         -4.7563    1.7190   -3.2812 CT        1 <0>       -0.08605
      5 C5         -3.7842    2.9832   -1.3628 CT        1 <0>       -0.08605
      6 C6         -2.7630    0.7761   -1.9617 CT        1 <0>       -0.07167
      7 C7         -1.9541    0.6663   -0.6598 CT        1 <0>        0.14661
      8 C8         -2.2593   -0.1866    1.5285 CT        1 <0>        0.33331
      9 C9         -4.0999    1.5714   -1.8998 CT        1 <0>       -0.05205
     10 O1         -1.0173   -0.7137    1.9852 OH        1 <0>       -0.62090
     11 O2         -2.4604   -0.4032    0.1319 OS        1 <0>       -0.40897
     12 H1         -0.3713   -0.5402   -1.5430 HC        1 <0>        0.04713
     13 H2         -0.0399    1.2047   -1.5221 HC        1 <0>        0.04713
     14 H3          0.0911    0.2811   -0.0325 HC        1 <0>        0.04713
     15 H4         -3.4244   -1.9254    2.0928 HC        1 <0>        0.05279
     16 H5         -3.2920   -0.7068    3.3608 HC        1 <0>        0.05279
     17 H6         -4.3665   -0.4114    1.9903 HC        1 <0>        0.05279
     18 H7         -4.6720    0.7742    0.0634 HC        1 <0>        0.03383
     19 H8         -5.3794   -0.0951   -1.2963 HC        1 <0>        0.03383
     20 H9         -6.0133    1.4930   -0.8433 HC        1 <0>        0.03383
     21 H10        -4.0744    2.1939   -3.9950 HC        1 <0>        0.03383
     22 H11        -5.6587    2.3388   -3.2236 HC        1 <0>        0.03383
     23 H12        -5.0632    0.7517   -3.6913 HC        1 <0>        0.03383
     24 H13        -3.0754    3.5051   -2.0156 HC        1 <0>        0.03383
     25 H14        -4.6899    3.5969   -1.2984 HC        1 <0>        0.03383
     26 H15        -3.3441    2.9367   -0.3601 HC        1 <0>        0.03383
     27 H16        -2.9856   -0.2399   -2.3163 HC        1 <0>        0.05459
     28 H17        -2.1271    1.2422   -2.7267 HC        1 <0>        0.05459
     29 H18        -2.0232    1.5890   -0.0764 H1        1 <0>        0.03556
     30 H19        -2.2694    0.8892    1.7376 H2        1 <0>        0.02776
     31 H20        -0.9397   -0.5296    2.9363 HO        1 <0>        0.40523
@<TRIPOS>BOND
     1    1    7 1
     2    2    8 1
     3    3    9 1
     4    4    9 1
     5    5    9 1
     6    6    7 1
     7    6    9 1
     8    7   11 1
     9    8   10 1
    10    8   11 1
    11    1   12 1
    12    1   13 1
    13    1   14 1
    14    2   15 1
    15    2   16 1
    16    2   17 1
    17    3   18 1
    18    3   19 1
    19    3   20 1
    20    4   21 1
    21    4   22 1
    22    4   23 1
    23    5   24 1
    24    5   25 1
    25    5   26 1
    26    6   27 1
    27    6   28 1
    28    7   29 1
    29    8   30 1
    30   10   31 1
@<TRIPOS>SUBSTRUCTURE
     1 <0>         1 GROUP 0 A     ****
