@<TRIPOS>MOLECULE
AlkEthOH_r389
   23    23     1     0     0
SMALL
USER_CHARGES

@<TRIPOS>ATOM
      1 C1         -0.4027    1.0705    1.9274 CT        1 <0>       -0.07625
      2 C2          0.2605   -0.2952    1.7531 CT        1 <0>       -0.07399
      3 C3         -0.2002    2.0374    0.7638 CT        1 <0>       -0.10798
      4 C4         -0.3787   -1.1212    0.6344 CT        1 <0>       -0.08768
      5 C5         -0.6007    1.4718   -0.5922 CT        1 <0>        0.14786
      6 C6          0.1858   -0.8207   -0.7659 CT        1 <0>        0.34853
      7 C7         -0.7166   -1.4241   -1.8465 CT        1 <0>       -0.13907
      8 O1          0.3935    0.5621   -1.0412 OS        1 <0>       -0.45945
      9 O2          1.4592   -1.4805   -0.8329 OH        1 <0>       -0.59653
     10 H1         -1.4779    0.9330    2.0981 HC        1 <0>        0.03700
     11 H2         -0.0067    1.5390    2.8368 HC        1 <0>        0.03700
     12 H3          1.3394   -0.1837    1.5962 HC        1 <0>        0.05389
     13 H4          0.1355   -0.8446    2.6947 HC        1 <0>        0.05389
     14 H5         -0.7876    2.9414    0.9627 HC        1 <0>        0.05048
     15 H6          0.8555    2.3348    0.7358 HC        1 <0>        0.05048
     16 H7         -0.2119   -2.1835    0.8579 HC        1 <0>        0.05457
     17 H8         -1.4653   -0.9697    0.6552 HC        1 <0>        0.05457
     18 H9         -1.6041    1.0328   -0.5874 H1        1 <0>        0.04381
     19 H10        -0.6149    2.2942   -1.3157 H1        1 <0>        0.04381
     20 H11        -0.3061   -1.2043   -2.8290 HC        1 <0>        0.04835
     21 H12        -1.7136   -0.9974   -1.7691 HC        1 <0>        0.04835
     22 H13        -0.7746   -2.5017   -1.7132 HC        1 <0>        0.04835
     23 H14         1.8111   -1.2901   -1.7130 HO        1 <0>        0.42001
@<TRIPOS>BOND
     1    1    2 1
     2    1    3 1
     3    2    4 1
     4    3    5 1
     5    4    6 1
     6    5    8 1
     7    6    7 1
     8    6    8 1
     9    6    9 1
    10    1   10 1
    11    1   11 1
    12    2   12 1
    13    2   13 1
    14    3   14 1
    15    3   15 1
    16    4   16 1
    17    4   17 1
    18    5   18 1
    19    5   19 1
    20    7   20 1
    21    7   21 1
    22    7   22 1
    23    9   23 1
@<TRIPOS>SUBSTRUCTURE
     1 <0>         1 GROUP 0 A     ****
