@<TRIPOS>MOLECULE
AlkEthOH_c945
   25    24     1     0     0
SMALL
USER_CHARGES

@<TRIPOS>ATOM
      1 C1          0.3628   -2.3970   -0.5236 CT        1 <0>       -0.08897
      2 C2         -2.2000    1.9143   -0.5968 CT        1 <0>       -0.13236
      3 C3          1.1164   -0.8135    2.0119 CT        1 <0>       -0.12534
      4 C4          1.2265   -1.1443   -0.4992 CT        1 <0>       -0.10722
      5 C5         -0.4928    0.4798    0.5809 CT        1 <0>       -0.05807
      6 C6         -0.8248    1.2643   -0.6989 CT        1 <0>        0.14583
      7 C7          0.9207   -0.1512    0.6414 CT        1 <0>        0.15900
      8 O1          0.1451    2.2855   -0.9044 OH        1 <0>       -0.57113
      9 O2          1.9012    0.8930    0.5748 OH        1 <0>       -0.57296
     10 H1          0.4134   -2.9392    0.4246 HC        1 <0>        0.03408
     11 H2         -0.6842   -2.1621   -0.7345 HC        1 <0>        0.03408
     12 H3          0.7138   -3.0744   -1.3092 HC        1 <0>        0.03408
     13 H4         -2.2436    2.5850    0.2681 HC        1 <0>        0.04120
     14 H5         -2.4347    2.4919   -1.4959 HC        1 <0>        0.04120
     15 H6         -2.9805    1.1599   -0.4483 HC        1 <0>        0.04120
     16 H7          0.8982   -0.1050    2.8199 HC        1 <0>        0.04124
     17 H8          2.1584   -1.1241    2.1504 HC        1 <0>        0.04124
     18 H9          0.4726   -1.6882    2.1444 HC        1 <0>        0.04124
     19 H10         1.1449   -0.6347   -1.4675 HC        1 <0>        0.04597
     20 H11         2.2812   -1.4451   -0.4372 HC        1 <0>        0.04597
     21 H12        -1.2489   -0.3021    0.7243 HC        1 <0>        0.05517
     22 H13        -0.5825    1.1743    1.4280 HC        1 <0>        0.05517
     23 H14        -0.8103    0.6013   -1.5694 H1        1 <0>        0.02482
     24 H15        -0.0944    2.7343   -1.7306 HO        1 <0>        0.38738
     25 H16         2.7610    0.4586    0.6631 HO        1 <0>        0.38718
@<TRIPOS>BOND
     1    1    4 1
     2    2    6 1
     3    3    7 1
     4    4    7 1
     5    5    6 1
     6    5    7 1
     7    6    8 1
     8    7    9 1
     9    1   10 1
    10    1   11 1
    11    1   12 1
    12    2   13 1
    13    2   14 1
    14    2   15 1
    15    3   16 1
    16    3   17 1
    17    3   18 1
    18    4   19 1
    19    4   20 1
    20    5   21 1
    21    5   22 1
    22    6   23 1
    23    8   24 1
    24    9   25 1
@<TRIPOS>SUBSTRUCTURE
     1 <0>         1 GROUP 0 A     ****
