@<TRIPOS>MOLECULE
AlkEthOH_c1279
   19    18     1     0     0
SMALL
USER_CHARGES

@<TRIPOS>ATOM
      1 C1          1.9689   -4.4505    0.5919 CT        1 <0>       -0.09613
      2 C2          0.7769   -0.0127   -0.7752 CT        1 <0>       -0.08728
      3 C3          1.5807   -3.6110   -0.6065 CT        1 <0>        0.12883
      4 C4          0.3988    0.9317   -1.9043 CT        1 <0>        0.13325
      5 C5          0.9970   -1.4335   -1.2704 CT        1 <0>        0.13137
      6 O1          0.2241    2.2375   -1.3720 OH        1 <0>       -0.59793
      7 O2          1.3656   -2.2715   -0.1832 OS        1 <0>       -0.42065
      8 H1          2.8896   -4.0768    1.0484 HC        1 <0>        0.04545
      9 H2          1.1728   -4.4418    1.3436 HC        1 <0>        0.04545
     10 H3          2.1186   -5.4951    0.2990 HC        1 <0>        0.04545
     11 H4          1.6787    0.3512   -0.2665 HC        1 <0>        0.07008
     12 H5         -0.0006    0.0001   -0.0006 HC        1 <0>        0.07008
     13 H6          0.6592   -3.9901   -1.0583 H1        1 <0>        0.02300
     14 H7          2.3776   -3.6202   -1.3561 H1        1 <0>        0.02300
     15 H8          1.1863    0.9678   -2.6637 H1        1 <0>        0.01987
     16 H9         -0.5382    0.6201   -2.3769 H1        1 <0>        0.01987
     17 H10         1.8025   -1.4679   -2.0104 H1        1 <0>        0.02351
     18 H11         0.0907   -1.8404   -1.7302 H1        1 <0>        0.02351
     19 H12        -0.0157    2.8138   -2.1158 HO        1 <0>        0.39927
@<TRIPOS>BOND
     1    1    3 1
     2    2    4 1
     3    2    5 1
     4    3    7 1
     5    4    6 1
     6    5    7 1
     7    1    8 1
     8    1    9 1
     9    1   10 1
    10    2   11 1
    11    2   12 1
    12    3   13 1
    13    3   14 1
    14    4   15 1
    15    4   16 1
    16    5   17 1
    17    5   18 1
    18    6   19 1
@<TRIPOS>SUBSTRUCTURE
     1 <0>         1 GROUP 0 A     ****
