@<TRIPOS>MOLECULE
AlkEthOH_r47
   24    24     1     0     0
SMALL
USER_CHARGES

@<TRIPOS>ATOM
      1 C1          2.1442   -0.0312    0.0135 CT        1 <0>       -0.07792
      2 C2          1.5676    0.2532    1.4035 CT        1 <0>       -0.06843
      3 C3          1.7315    0.9617   -1.0780 CT        1 <0>       -0.06843
      4 C4          0.3737   -0.6281    1.7892 CT        1 <0>       -0.12979
      5 C5          0.2484    1.3147   -1.1871 CT        1 <0>       -0.12979
      6 C6         -0.8729   -0.4518    0.9234 CT        1 <0>        0.34079
      7 C7         -0.6896    0.1246   -1.4070 CT        1 <0>        0.34079
      8 O1         -0.5812   -0.8788   -0.4025 OS        1 <0>       -0.39016
      9 O2         -1.8979   -1.2764    1.4782 OH        1 <0>       -0.60370
     10 O3         -2.0239    0.6121   -1.5333 OH        1 <0>       -0.60370
     11 H1          3.2393    0.0156    0.0840 HC        1 <0>        0.04913
     12 H2          1.9221   -1.0576   -0.3003 HC        1 <0>        0.04913
     13 H3          2.3576    0.0529    2.1394 HC        1 <0>        0.03845
     14 H4          1.3135    1.3128    1.5185 HC        1 <0>        0.03845
     15 H5          2.2832    1.8969   -0.9159 HC        1 <0>        0.03845
     16 H6          2.0779    0.5735   -2.0441 HC        1 <0>        0.03845
     17 H7          0.6881   -1.6800    1.7593 HC        1 <0>        0.05291
     18 H8          0.1116   -0.4272    2.8359 HC        1 <0>        0.05291
     19 H9         -0.0563    1.8878   -0.3043 HC        1 <0>        0.05291
     20 H10         0.1177    2.0156   -2.0226 HC        1 <0>        0.05291
     21 H11        -1.2268    0.5835    0.9758 H2        1 <0>        0.05837
     22 H12        -0.4246   -0.3503   -2.3585 H2        1 <0>        0.05837
     23 H13        -2.0398   -0.9641    2.3845 HO        1 <0>        0.40495
     24 H14        -2.0276    1.2092   -2.2970 HO        1 <0>        0.40495
@<TRIPOS>BOND
     1    1    2 1
     2    1    3 1
     3    2    4 1
     4    3    5 1
     5    4    6 1
     6    5    7 1
     7    6    8 1
     8    6    9 1
     9    7    8 1
    10    7   10 1
    11    1   11 1
    12    1   12 1
    13    2   13 1
    14    2   14 1
    15    3   15 1
    16    3   16 1
    17    4   17 1
    18    4   18 1
    19    5   19 1
    20    5   20 1
    21    6   21 1
    22    7   22 1
    23    9   23 1
    24   10   24 1
@<TRIPOS>SUBSTRUCTURE
     1 <0>         1 GROUP 0 A     ****
