@<TRIPOS>MOLECULE
AlkEthOH_r930
   27    27     1     0     0
SMALL
USER_CHARGES

@<TRIPOS>ATOM
      1 C1          0.6926    0.5522   -2.1281 CT        1 <0>       -0.06872
      2 C2         -0.7654    0.1000   -2.0195 CT        1 <0>       -0.11132
      3 C3          1.6814   -0.2791   -1.3015 CT        1 <0>       -0.08977
      4 C4         -1.5987    0.9376   -1.0501 CT        1 <0>        0.14981
      5 C5          1.4675   -0.2012    0.2136 CT        1 <0>        0.16098
      6 C6         -0.8148   -0.0459    1.0173 CT        1 <0>        0.53098
      7 C7          2.5969   -0.9210    0.9447 CT        1 <0>       -0.10752
      8 C8         -0.4830    0.4302    2.4399 CT        1 <0>       -0.11060
      9 O1         -1.0187    1.1376    0.2335 OS        1 <0>       -0.44183
     10 O2          0.2551   -0.8783    0.5517 OS        1 <0>       -0.48702
     11 O3         -2.0128   -0.8321    1.0985 OH        1 <0>       -0.61285
     12 H1          0.9955    0.4549   -3.1788 HC        1 <0>        0.04025
     13 H2          0.7922    1.6153   -1.8790 HC        1 <0>        0.04025
     14 H3         -1.2344    0.1846   -3.0080 HC        1 <0>        0.05314
     15 H4         -0.8186   -0.9618   -1.7551 HC        1 <0>        0.05314
     16 H5          1.6148   -1.3243   -1.6303 HC        1 <0>        0.04685
     17 H6          2.6940    0.0688   -1.5410 HC        1 <0>        0.04685
     18 H7         -1.7333    1.9362   -1.4818 H1        1 <0>        0.05538
     19 H8         -2.6047    0.5162   -0.9447 H1        1 <0>        0.05538
     20 H9          1.4614    0.8477    0.5310 H1        1 <0>        0.05867
     21 H10         2.6239   -1.9680    0.6455 HC        1 <0>        0.04227
     22 H11         2.4379   -0.8628    2.0207 HC        1 <0>        0.04227
     23 H12         3.5515   -0.4566    0.7006 HC        1 <0>        0.04227
     24 H13        -0.3174   -0.4308    3.0826 HC        1 <0>        0.05874
     25 H14        -1.3108    1.0171    2.8296 HC        1 <0>        0.05874
     26 H15         0.4150    1.0425    2.4187 HC        1 <0>        0.05874
     27 H16        -1.8112   -1.5704    1.6911 HO        1 <0>        0.43492
@<TRIPOS>BOND
     1    1    2 1
     2    1    3 1
     3    2    4 1
     4    3    5 1
     5    4    9 1
     6    5    7 1
     7    5   10 1
     8    6    8 1
     9    6    9 1
    10    6   10 1
    11    6   11 1
    12    1   12 1
    13    1   13 1
    14    2   14 1
    15    2   15 1
    16    3   16 1
    17    3   17 1
    18    4   18 1
    19    4   19 1
    20    5   20 1
    21    7   21 1
    22    7   22 1
    23    7   23 1
    24    8   24 1
    25    8   25 1
    26    8   26 1
    27   11   27 1
@<TRIPOS>SUBSTRUCTURE
     1 <0>         1 GROUP 0 A     ****
