@<TRIPOS>MOLECULE
AlkEthOH_r1029
   26    26     1     0     0
SMALL
USER_CHARGES

@<TRIPOS>ATOM
      1 C1         -1.7790    0.6174    1.0537 CT        1 <0>       -0.10448
      2 C2         -1.7274    1.3841   -0.2766 CT        1 <0>       -0.09590
      3 C3          1.5516   -1.2252    0.1127 CT        1 <0>       -0.09802
      4 C4         -1.9198   -0.9008    0.8950 CT        1 <0>        0.13379
      5 C5         -0.3174    1.7200   -0.7672 CT        1 <0>        0.13596
      6 C6          0.3400   -1.6690    0.9346 CT        1 <0>        0.13145
      7 C7          1.5078    0.2811   -0.1827 CT        1 <0>        0.14494
      8 C8          2.7836    0.7432   -0.8755 CT        1 <0>       -0.11490
      9 O1         -0.8465   -1.4835    0.1665 OS        1 <0>       -0.40267
     10 O2          0.4072    0.5326   -1.0605 OS        1 <0>       -0.40456
     11 H1         -0.9033    0.8654    1.6625 HC        1 <0>        0.03955
     12 H2         -2.6561    0.9653    1.6137 HC        1 <0>        0.03955
     13 H3         -2.2611    0.8183   -1.0496 HC        1 <0>        0.04970
     14 H4         -2.2641    2.3322   -0.1477 HC        1 <0>        0.04970
     15 H5          2.4663   -1.4740    0.6625 HC        1 <0>        0.05951
     16 H6          1.5566   -1.7796   -0.8341 HC        1 <0>        0.05951
     17 H7         -2.0188   -1.3869    1.8730 H1        1 <0>        0.04298
     18 H8         -2.8387   -1.1186    0.3395 H1        1 <0>        0.04298
     19 H9         -0.4008    2.2820   -1.7039 H1        1 <0>        0.03625
     20 H10         0.2051    2.3685   -0.0542 H1        1 <0>        0.03625
     21 H11         0.4223   -2.7363    1.1650 H1        1 <0>        0.03073
     22 H12         0.3095   -1.1234    1.8849 H1        1 <0>        0.03073
     23 H13         1.3958    0.8193    0.7668 H1        1 <0>        0.03245
     24 H14         2.9065    0.2153   -1.8212 HC        1 <0>        0.04150
     25 H15         3.6467    0.5392   -0.2418 HC        1 <0>        0.04150
     26 H16         2.7341    1.8143   -1.0721 HC        1 <0>        0.04150
@<TRIPOS>BOND
     1    1    2 1
     2    1    4 1
     3    2    5 1
     4    3    6 1
     5    3    7 1
     6    4    9 1
     7    5   10 1
     8    6    9 1
     9    7    8 1
    10    7   10 1
    11    1   11 1
    12    1   12 1
    13    2   13 1
    14    2   14 1
    15    3   15 1
    16    3   16 1
    17    4   17 1
    18    4   18 1
    19    5   19 1
    20    5   20 1
    21    6   21 1
    22    6   22 1
    23    7   23 1
    24    8   24 1
    25    8   25 1
    26    8   26 1
@<TRIPOS>SUBSTRUCTURE
     1 <0>         1 GROUP 0 A     ****
