@<TRIPOS>MOLECULE
AlkEthOH_c238
   23    22     1     0     0
SMALL
USER_CHARGES

@<TRIPOS>ATOM
      1 C1         -0.5521    0.0942    1.0158 CT        1 <0>       -0.12344
      2 C2          1.6683    0.5960    2.0745 CT        1 <0>       -0.12344
      3 C3          3.0027   -3.8678    4.0849 CT        1 <0>        0.12916
      4 C4          2.0530   -3.5288    2.9521 CT        1 <0>        0.12124
      5 C5          0.7921   -1.7855    2.0067 CT        1 <0>        0.14070
      6 C6          0.4298   -0.2995    2.1208 CT        1 <0>        0.15121
      7 O1          4.1692   -3.0622    3.9694 OH        1 <0>       -0.59876
      8 O2         -0.2074   -0.0771    3.3815 OH        1 <0>       -0.58649
      9 O3          1.6860   -2.1600    3.0490 OS        1 <0>       -0.40641
     10 H1         -1.4437   -0.5426    1.0409 HC        1 <0>        0.04575
     11 H2         -0.8677    1.1383    1.1102 HC        1 <0>        0.04575
     12 H3         -0.1024   -0.0433    0.0258 HC        1 <0>        0.04575
     13 H4          2.3840    0.3285    2.8598 HC        1 <0>        0.04575
     14 H5          1.3973    1.6428    2.2552 HC        1 <0>        0.04575
     15 H6          2.1737    0.5330    1.1054 HC        1 <0>        0.04575
     16 H7          3.3081   -4.9178    4.0427 H1        1 <0>        0.03842
     17 H8          2.5358   -3.6581    5.0516 H1        1 <0>        0.03842
     18 H9          1.1408   -4.1311    3.0083 H1        1 <0>        0.03829
     19 H10         2.5393   -3.6856    1.9849 H1        1 <0>        0.03829
     20 H11        -0.1019   -2.4117    2.1000 H1        1 <0>        0.03474
     21 H12         1.2768   -1.9987    1.0480 H1        1 <0>        0.03474
     22 H13         4.7507   -3.3057    4.7073 HO        1 <0>        0.40159
     23 H14        -0.4226    0.8666    3.4141 HO        1 <0>        0.39724
@<TRIPOS>BOND
     1    1    6 1
     2    2    6 1
     3    3    4 1
     4    3    7 1
     5    4    9 1
     6    5    6 1
     7    5    9 1
     8    6    8 1
     9    1   10 1
    10    1   11 1
    11    1   12 1
    12    2   13 1
    13    2   14 1
    14    2   15 1
    15    3   16 1
    16    3   17 1
    17    4   18 1
    18    4   19 1
    19    5   20 1
    20    5   21 1
    21    7   22 1
    22    8   23 1
@<TRIPOS>SUBSTRUCTURE
     1 <0>         1 GROUP 0 A     ****
