@<TRIPOS>MOLECULE
AlkEthOH_c1153
   25    24     1     0     0
SMALL
USER_CHARGES

@<TRIPOS>ATOM
      1 C1          3.4539   -5.3138    4.0419 CT        1 <0>       -0.09197
      2 C2         -0.5521    0.0942    1.0158 CT        1 <0>       -0.12417
      3 C3          1.6683    0.5960    2.0745 CT        1 <0>       -0.12417
      4 C4          3.0052   -3.8643    4.0898 CT        1 <0>       -0.08532
      5 C5          2.0530   -3.5288    2.9521 CT        1 <0>        0.13047
      6 C6          0.7921   -1.7855    2.0067 CT        1 <0>        0.14329
      7 C7          0.4298   -0.2995    2.1208 CT        1 <0>        0.15173
      8 O1         -0.2074   -0.0771    3.3815 OH        1 <0>       -0.58372
      9 O2          1.6860   -2.1600    3.0490 OS        1 <0>       -0.40998
     10 H1          2.5953   -5.9915    4.0848 HC        1 <0>        0.03470
     11 H2          3.9972   -5.5126    3.1129 HC        1 <0>        0.03470
     12 H3          4.1180   -5.5467    4.8803 HC        1 <0>        0.03470
     13 H4         -1.4437   -0.5426    1.0409 HC        1 <0>        0.04513
     14 H5         -0.8677    1.1383    1.1102 HC        1 <0>        0.04513
     15 H6         -0.1024   -0.0433    0.0258 HC        1 <0>        0.04513
     16 H7          2.3840    0.3285    2.8598 HC        1 <0>        0.04513
     17 H8          1.3973    1.6428    2.2552 HC        1 <0>        0.04513
     18 H9          2.1737    0.5330    1.1054 HC        1 <0>        0.04513
     19 H10         3.8786   -3.2026    4.0458 HC        1 <0>        0.05426
     20 H11         2.5185   -3.6566    5.0503 HC        1 <0>        0.05426
     21 H12         2.5307   -3.6936    1.9811 H1        1 <0>        0.02390
     22 H13         1.1451   -4.1378    3.0100 H1        1 <0>        0.02390
     23 H14        -0.1019   -2.4117    2.1000 H1        1 <0>        0.03295
     24 H15         1.2768   -1.9987    1.0480 H1        1 <0>        0.03295
     25 H16        -0.4226    0.8666    3.4141 HO        1 <0>        0.39674
@<TRIPOS>BOND
     1    1    4 1
     2    2    7 1
     3    3    7 1
     4    4    5 1
     5    5    9 1
     6    6    7 1
     7    6    9 1
     8    7    8 1
     9    1   10 1
    10    1   11 1
    11    1   12 1
    12    2   13 1
    13    2   14 1
    14    2   15 1
    15    3   16 1
    16    3   17 1
    17    3   18 1
    18    4   19 1
    19    4   20 1
    20    5   21 1
    21    5   22 1
    22    6   23 1
    23    6   24 1
    24    8   25 1
@<TRIPOS>SUBSTRUCTURE
     1 <0>         1 GROUP 0 A     ****
