@<TRIPOS>MOLECULE
AlkEthOH_r871
   21    21     1     0     0
SMALL
USER_CHARGES

@<TRIPOS>ATOM
      1 C1          0.8995   -0.5234   -0.3432 CT        1 <0>       -0.07549
      2 C2          0.8735   -1.9668    0.1497 CT        1 <0>       -0.07555
      3 C3          0.9867   -0.4515   -1.8645 CT        1 <0>       -0.07555
      4 C4          2.0621   -2.7649   -0.3812 CT        1 <0>       -0.07284
      5 C5          2.1754   -1.2472   -2.3989 CT        1 <0>       -0.07284
      6 C6          2.1480   -2.7023   -1.9123 CT        1 <0>       -0.06564
      7 C7          3.3738   -3.4625   -2.4153 CT        1 <0>       -0.08942
      8 H1         -0.0006   -0.0005   -0.0004 HC        1 <0>        0.03827
      9 H2          1.7597   -0.0036    0.0962 HC        1 <0>        0.03827
     10 H3          0.8793   -1.9815    1.2456 HC        1 <0>        0.03803
     11 H4         -0.0598   -2.4458   -0.1711 HC        1 <0>        0.03803
     12 H5          0.0599   -0.8421   -2.3025 HC        1 <0>        0.03803
     13 H6          1.0718    0.5949   -2.1790 HC        1 <0>        0.03803
     14 H7          2.9864   -2.3713    0.0610 HC        1 <0>        0.03863
     15 H8          1.9732   -3.8076   -0.0536 HC        1 <0>        0.03863
     16 H9          2.1663   -1.2188   -3.4951 HC        1 <0>        0.03863
     17 H10         3.1065   -0.7632   -2.0769 HC        1 <0>        0.03863
     18 H11         1.2555   -3.1885   -2.3283 HC        1 <0>        0.04533
     19 H12         4.2793   -3.0052   -2.0201 HC        1 <0>        0.03294
     20 H13         3.4049   -3.4336   -3.5031 HC        1 <0>        0.03294
     21 H14         3.3251   -4.4994   -2.0869 HC        1 <0>        0.03294
@<TRIPOS>BOND
     1    1    2 1
     2    1    3 1
     3    2    4 1
     4    3    5 1
     5    4    6 1
     6    5    6 1
     7    6    7 1
     8    1    8 1
     9    1    9 1
    10    2   10 1
    11    2   11 1
    12    3   12 1
    13    3   13 1
    14    4   14 1
    15    4   15 1
    16    5   16 1
    17    5   17 1
    18    6   18 1
    19    7   19 1
    20    7   20 1
    21    7   21 1
@<TRIPOS>SUBSTRUCTURE
     1 <0>         1 GROUP 0 A     ****
