@<TRIPOS>MOLECULE
AlkEthOH_c947
   21    20     1     0     0
SMALL
USER_CHARGES

@<TRIPOS>ATOM
      1 C1          0.8667   -0.1531    0.6628 CT        1 <0>       -0.08910
      2 C2          0.6714   -2.5698    3.5312 CT        1 <0>       -0.08910
      3 C3          3.6611   -1.2573    1.3912 CT        1 <0>       -0.12271
      4 C4          1.2567   -1.6237    0.6536 CT        1 <0>       -0.08426
      5 C5          1.9574   -1.8516    3.1367 CT        1 <0>       -0.08426
      6 C6          2.3588   -2.0236    1.6572 CT        1 <0>        0.15315
      7 O1          2.6406   -3.4153    1.4500 OH        1 <0>       -0.60359
      8 H1          0.5338    0.1691    1.6534 HC        1 <0>        0.03632
      9 H2          1.7307    0.4615    0.3894 HC        1 <0>        0.03632
     10 H3          0.0718    0.0580   -0.0579 HC        1 <0>        0.03632
     11 H4          0.7212   -3.6374    3.2972 HC        1 <0>        0.03632
     12 H5          0.5057   -2.4711    4.6089 HC        1 <0>        0.03632
     13 H6         -0.1989   -2.1429    3.0248 HC        1 <0>        0.03632
     14 H7          4.4361   -1.5493    2.1095 HC        1 <0>        0.04178
     15 H8          3.5230   -0.1741    1.4598 HC        1 <0>        0.04178
     16 H9          4.0588   -1.4946    0.3978 HC        1 <0>        0.04178
     17 H10         1.5815   -1.8926   -0.3607 HC        1 <0>        0.04530
     18 H11         0.3612   -2.2341    0.8251 HC        1 <0>        0.04530
     19 H12         1.8638   -0.7887    3.3880 HC        1 <0>        0.04530
     20 H13         2.7585   -2.2552    3.7701 HC        1 <0>        0.04530
     21 H14         2.9312   -3.4944    0.5311 HO        1 <0>        0.39541
@<TRIPOS>BOND
     1    1    4 1
     2    2    5 1
     3    3    6 1
     4    4    6 1
     5    5    6 1
     6    6    7 1
     7    1    8 1
     8    1    9 1
     9    1   10 1
    10    2   11 1
    11    2   12 1
    12    2   13 1
    13    3   14 1
    14    3   15 1
    15    3   16 1
    16    4   17 1
    17    4   18 1
    18    5   19 1
    19    5   20 1
    20    7   21 1
@<TRIPOS>SUBSTRUCTURE
     1 <0>         1 GROUP 0 A     ****
