@<TRIPOS>MOLECULE
AlkEthOH_c153
   23    22     1     0     0
SMALL
USER_CHARGES

@<TRIPOS>ATOM
      1 C1         -0.2282   -0.5817    1.7684 CT        1 <0>       -0.08732
      2 C2         -2.2320   -0.2834    0.2952 CT        1 <0>       -0.08732
      3 C3         -0.7964    1.6838    0.8699 CT        1 <0>       -0.08732
      4 C4          2.3982   -0.3211   -1.2846 CT        1 <0>        0.32817
      5 C5          0.0927   -0.1201   -0.7014 CT        1 <0>        0.33523
      6 C6         -0.7840    0.1768    0.5482 CT        1 <0>       -0.03313
      7 O1          2.4492   -1.7298   -1.1098 OH        1 <0>       -0.63693
      8 O2         -0.4569    0.5543   -1.8324 OH        1 <0>       -0.61053
      9 O3          1.4350    0.3041   -0.4428 OS        1 <0>       -0.43715
     10 H1          0.8036   -0.2889    1.9909 HC        1 <0>        0.04087
     11 H2         -0.8264   -0.3808    2.6646 HC        1 <0>        0.04087
     12 H3         -0.2398   -1.6639    1.5973 HC        1 <0>        0.04087
     13 H4         -2.6660    0.2341   -0.5679 HC        1 <0>        0.04087
     14 H5         -2.8684   -0.0736    1.1621 HC        1 <0>        0.04087
     15 H6         -2.2850   -1.3587    0.0929 HC        1 <0>        0.04087
     16 H7         -1.1849    2.2702    0.0302 HC        1 <0>        0.04087
     17 H8          0.2087    2.0537    1.0998 HC        1 <0>        0.04087
     18 H9         -1.4303    1.8948    1.7389 HC        1 <0>        0.04087
     19 H10         2.1937   -0.0995   -2.3367 H2        1 <0>        0.03724
     20 H11         3.3820    0.0943   -1.0446 H2        1 <0>        0.03724
     21 H12         0.0732   -1.2003   -0.8976 H2        1 <0>        0.05828
     22 H13         3.1272   -2.0695   -1.7182 HO        1 <0>        0.41665
     23 H14         0.1105    0.3503   -2.5949 HO        1 <0>        0.39906
@<TRIPOS>BOND
     1    1    6 1
     2    2    6 1
     3    3    6 1
     4    4    7 1
     5    4    9 1
     6    5    6 1
     7    5    8 1
     8    5    9 1
     9    1   10 1
    10    1   11 1
    11    1   12 1
    12    2   13 1
    13    2   14 1
    14    2   15 1
    15    3   16 1
    16    3   17 1
    17    3   18 1
    18    4   19 1
    19    4   20 1
    20    5   21 1
    21    7   22 1
    22    8   23 1
@<TRIPOS>SUBSTRUCTURE
     1 <0>         1 GROUP 0 A     ****
