@<TRIPOS>MOLECULE
AlkEthOH_c533
   32    31     1     0     0
SMALL
USER_CHARGES

@<TRIPOS>ATOM
      1 C1         -0.6599   -2.2639   -2.8741 CT        1 <0>       -0.10852
      2 C2         -1.9898   -0.1339   -3.0891 CT        1 <0>       -0.10852
      3 C3         -2.3960    0.4947    0.4680 CT        1 <0>       -0.10504
      4 C4         -1.8285   -0.1941    2.8160 CT        1 <0>       -0.10504
      5 C5         -0.9691    1.9849    1.9095 CT        1 <0>       -0.10504
      6 C6          1.3325   -0.8319   -0.6670 CT        1 <0>       -0.12118
      7 C7         -0.8099   -0.8206   -2.4181 CT        1 <0>        0.15218
      8 C8         -1.3390    0.5416    1.5705 CT        1 <0>        0.18350
      9 C9          0.0470   -0.0730   -0.3097 CT        1 <0>        0.53935
     10 O1          0.1415    1.2686   -0.8003 OH        1 <0>       -0.63182
     11 O2         -0.9914   -0.7917   -1.0081 OS        1 <0>       -0.46720
     12 O3         -0.1742   -0.1271    1.1086 OS        1 <0>       -0.40937
     13 H1         -1.5644   -2.8429   -2.6640 HC        1 <0>        0.04504
     14 H2         -0.4603   -2.3047   -3.9503 HC        1 <0>        0.04504
     15 H3          0.1890   -2.7479   -2.3786 HC        1 <0>        0.04504
     16 H4         -2.9259   -0.6621   -2.8841 HC        1 <0>        0.04504
     17 H5         -1.8409   -0.0935   -4.1735 HC        1 <0>        0.04504
     18 H6         -2.0897    0.9020   -2.7466 HC        1 <0>        0.04504
     19 H7         -2.0484    1.0217   -0.4277 HC        1 <0>        0.04481
     20 H8         -2.6446   -0.5350    0.1912 HC        1 <0>        0.04481
     21 H9         -3.3155    0.9991    0.7862 HC        1 <0>        0.04481
     22 H10        -1.0732   -0.1629    3.6096 HC        1 <0>        0.04481
     23 H11        -2.0049   -1.2538    2.5992 HC        1 <0>        0.04481
     24 H12        -2.7562    0.2398    3.2030 HC        1 <0>        0.04481
     25 H13        -0.2109    2.0189    2.7002 HC        1 <0>        0.04481
     26 H14        -0.5809    2.5177    1.0354 HC        1 <0>        0.04481
     27 H15        -1.8393    2.5306    2.2919 HC        1 <0>        0.04481
     28 H16         1.3105   -1.8672   -0.3124 HC        1 <0>        0.05986
     29 H17         2.2055   -0.3532   -0.2081 HC        1 <0>        0.05986
     30 H18         1.4886   -0.8462   -1.7512 HC        1 <0>        0.05986
     31 H19         0.1093   -0.2693   -2.6418 H1        1 <0>        0.02198
     32 H20         0.2538    1.2481   -1.7650 HO        1 <0>        0.41161
@<TRIPOS>BOND
     1    1    7 1
     2    2    7 1
     3    3    8 1
     4    4    8 1
     5    5    8 1
     6    6    9 1
     7    7   11 1
     8    8   12 1
     9    9   10 1
    10    9   11 1
    11    9   12 1
    12    1   13 1
    13    1   14 1
    14    1   15 1
    15    2   16 1
    16    2   17 1
    17    2   18 1
    18    3   19 1
    19    3   20 1
    20    3   21 1
    21    4   22 1
    22    4   23 1
    23    4   24 1
    24    5   25 1
    25    5   26 1
    26    5   27 1
    27    6   28 1
    28    6   29 1
    29    6   30 1
    30    7   31 1
    31   10   32 1
@<TRIPOS>SUBSTRUCTURE
     1 <0>         1 GROUP 0 A     ****
