@<TRIPOS>MOLECULE
AlkEthOH_c1156
   22    21     1     0     0
SMALL
USER_CHARGES

@<TRIPOS>ATOM
      1 C1         -1.0650   -3.6692    6.4181 CT        1 <0>       -0.09302
      2 C2         -0.6062    0.9264    0.6648 CT        1 <0>       -0.13158
      3 C3         -0.5136   -2.3842    5.8269 CT        1 <0>       -0.08483
      4 C4         -0.9866   -2.1705    4.3972 CT        1 <0>        0.13066
      5 C5         -0.8331   -0.7088    2.5635 CT        1 <0>        0.13309
      6 C6         -0.1831    0.5832    2.0850 CT        1 <0>        0.13804
      7 O1         -0.5895    1.6384    2.9552 OH        1 <0>       -0.58803
      8 O2         -0.4246   -0.9632    3.9033 OS        1 <0>       -0.41298
      9 H1         -2.1595   -3.6704    6.4013 HC        1 <0>        0.03432
     10 H2         -0.7158   -4.5323    5.8427 HC        1 <0>        0.03432
     11 H3         -0.7368   -3.7966    7.4545 HC        1 <0>        0.03432
     12 H4         -1.6967    1.0050    0.5978 HC        1 <0>        0.04388
     13 H5         -0.1694    1.8751    0.3381 HC        1 <0>        0.04388
     14 H6         -0.3043    0.1399   -0.0355 HC        1 <0>        0.04388
     15 H7          0.5825   -2.4028    5.8529 HC        1 <0>        0.05537
     16 H8         -0.8148   -1.5304    6.4456 HC        1 <0>        0.05537
     17 H9         -0.6651   -2.9942    3.7518 H1        1 <0>        0.02463
     18 H10        -2.0775   -2.0898    4.3545 H1        1 <0>        0.02463
     19 H11        -1.9253   -0.6300    2.5545 H1        1 <0>        0.03422
     20 H12        -0.5228   -1.5580    1.9467 H1        1 <0>        0.03422
     21 H13         0.9076    0.5046    2.1521 H1        1 <0>        0.04788
     22 H14        -0.1450    2.4403    2.6406 HO        1 <0>        0.39773
@<TRIPOS>BOND
     1    1    3 1
     2    2    6 1
     3    3    4 1
     4    4    8 1
     5    5    6 1
     6    5    8 1
     7    6    7 1
     8    1    9 1
     9    1   10 1
    10    1   11 1
    11    2   12 1
    12    2   13 1
    13    2   14 1
    14    3   15 1
    15    3   16 1
    16    4   17 1
    17    4   18 1
    18    5   19 1
    19    5   20 1
    20    6   21 1
    21    7   22 1
@<TRIPOS>SUBSTRUCTURE
     1 <0>         1 GROUP 0 A     ****
