@<TRIPOS>MOLECULE
AlkEthOH_c988
   27    26     1     0     0
SMALL
USER_CHARGES

@<TRIPOS>ATOM
      1 C1          0.8469   -0.8383   -0.0115 CT        1 <0>       -0.08894
      2 C2          5.7527   -1.0853   -4.1111 CT        1 <0>       -0.09000
      3 C3          6.0839   -0.4327   -1.7238 CT        1 <0>       -0.09000
      4 C4          5.5644   -2.8098   -2.3186 CT        1 <0>       -0.09000
      5 C5          1.5974   -0.6986   -1.3297 CT        1 <0>       -0.11227
      6 C6          3.7567   -1.0035   -2.6000 CT        1 <0>       -0.10074
      7 C7          3.0695   -1.1263   -1.2281 CT        1 <0>        0.13911
      8 C8          5.2755   -1.3412   -2.6659 CT        1 <0>       -0.04730
      9 O1          3.1296   -2.4826   -0.7980 OH        1 <0>       -0.59454
     10 H1          1.3228   -0.2446    0.7755 HC        1 <0>        0.03763
     11 H2         -0.1830   -0.4850   -0.1267 HC        1 <0>        0.03763
     12 H3          0.8051   -1.8808    0.3180 HC        1 <0>        0.03763
     13 H4          5.2058   -1.7108   -4.8258 HC        1 <0>        0.03599
     14 H5          6.8203   -1.3075   -4.2199 HC        1 <0>        0.03599
     15 H6          5.5999   -0.0397   -4.4021 HC        1 <0>        0.03599
     16 H7          5.7803   -0.5781   -0.6805 HC        1 <0>        0.03599
     17 H8          7.1560   -0.6482   -1.7900 HC        1 <0>        0.03599
     18 H9          5.9379    0.6270   -1.9559 HC        1 <0>        0.03599
     19 H10         5.2475   -3.0572   -1.3006 HC        1 <0>        0.03599
     20 H11         6.6382   -3.0237   -2.3760 HC        1 <0>        0.03599
     21 H12         5.0550   -3.4883   -3.0117 HC        1 <0>        0.03599
     22 H13         1.0838   -1.3093   -2.0823 HC        1 <0>        0.04038
     23 H14         1.5375    0.3468   -1.6544 HC        1 <0>        0.04038
     24 H15         3.2297   -1.6570   -3.3093 HC        1 <0>        0.04257
     25 H16         3.6248    0.0245   -2.9643 HC        1 <0>        0.04257
     26 H17         3.5798   -0.5039   -0.4866 H1        1 <0>        0.07643
     27 H18         2.6591   -3.0062   -1.4653 HO        1 <0>        0.39555
@<TRIPOS>BOND
     1    1    5 1
     2    2    8 1
     3    3    8 1
     4    4    8 1
     5    5    7 1
     6    6    7 1
     7    6    8 1
     8    7    9 1
     9    1   10 1
    10    1   11 1
    11    1   12 1
    12    2   13 1
    13    2   14 1
    14    2   15 1
    15    3   16 1
    16    3   17 1
    17    3   18 1
    18    4   19 1
    19    4   20 1
    20    4   21 1
    21    5   22 1
    22    5   23 1
    23    6   24 1
    24    6   25 1
    25    7   26 1
    26    9   27 1
@<TRIPOS>SUBSTRUCTURE
     1 <0>         1 GROUP 0 A     ****
