@<TRIPOS>MOLECULE
AlkEthOH_c737
   28    27     1     0     0
SMALL
USER_CHARGES

@<TRIPOS>ATOM
      1 C1          0.7387    1.8372    0.0651 CT        1 <0>       -0.08885
      2 C2          1.8891   -1.6567    1.0656 CT        1 <0>       -0.12448
      3 C3         -0.3503   -2.1464    2.0658 CT        1 <0>       -0.12448
      4 C4         -0.2628    0.8175   -2.0256 CT        1 <0>       -0.08230
      5 C5         -0.2216   -0.5451    0.1293 CT        1 <0>       -0.06075
      6 C6         -1.6632    1.4003   -1.8693 CT        1 <0>        0.13161
      7 C7          0.4961    0.5401   -0.7089 CT        1 <0>       -0.05473
      8 C8          0.5117   -1.0753    1.3846 CT        1 <0>        0.15241
      9 O1         -2.2300    1.5676   -3.1640 OH        1 <0>       -0.60564
     10 O2          0.6966   -0.0201    2.3286 OH        1 <0>       -0.59768
     11 H1         -0.2047    2.2801    0.3972 HC        1 <0>        0.03925
     12 H2          1.2667    2.5786   -0.5431 HC        1 <0>        0.03925
     13 H3          1.3337    1.6494    0.9654 HC        1 <0>        0.03925
     14 H4          2.5231   -0.9071    0.5775 HC        1 <0>        0.04229
     15 H5          2.4002   -2.0017    1.9702 HC        1 <0>        0.04229
     16 H6          1.8193   -2.4903    0.3590 HC        1 <0>        0.04229
     17 H7         -1.3452   -1.7534    2.3053 HC        1 <0>        0.04229
     18 H8          0.0944   -2.4593    3.0176 HC        1 <0>        0.04229
     19 H9         -0.4712   -3.0308    1.4318 HC        1 <0>        0.04229
     20 H10         0.3334    1.4978   -2.6487 HC        1 <0>        0.05216
     21 H11        -0.3291   -0.1104   -2.6093 HC        1 <0>        0.05216
     22 H12        -1.1945   -0.1487    0.4473 HC        1 <0>        0.04784
     23 H13        -0.4297   -1.3971   -0.5320 HC        1 <0>        0.04784
     24 H14        -2.3140    0.7309   -1.3001 H1        1 <0>        0.02305
     25 H15        -1.6374    2.3784   -1.3811 H1        1 <0>        0.02305
     26 H16         1.4760    0.1503   -1.0110 HC        1 <0>        0.04394
     27 H17        -3.1172    1.9384   -3.0335 HO        1 <0>        0.39742
     28 H18         1.1083   -0.4203    3.1092 HO        1 <0>        0.39594
@<TRIPOS>BOND
     1    1    7 1
     2    2    8 1
     3    3    8 1
     4    4    6 1
     5    4    7 1
     6    5    7 1
     7    5    8 1
     8    6    9 1
     9    8   10 1
    10    1   11 1
    11    1   12 1
    12    1   13 1
    13    2   14 1
    14    2   15 1
    15    2   16 1
    16    3   17 1
    17    3   18 1
    18    3   19 1
    19    4   20 1
    20    4   21 1
    21    5   22 1
    22    5   23 1
    23    6   24 1
    24    6   25 1
    25    7   26 1
    26    9   27 1
    27   10   28 1
@<TRIPOS>SUBSTRUCTURE
     1 <0>         1 GROUP 0 A     ****
