@<TRIPOS>MOLECULE
AlkEthOH_c1079
   30    29     1     0     0
SMALL
USER_CHARGES

@<TRIPOS>ATOM
      1 C1          3.1067   -1.4560   -0.7426 CT        1 <0>       -0.08914
      2 C2          0.7742    2.3859   -0.8004 CT        1 <0>       -0.09188
      3 C3         -1.8519   -0.0952    1.9057 CT        1 <0>       -0.12438
      4 C4         -2.9384   -0.9242   -0.1951 CT        1 <0>       -0.12438
      5 C5          1.9900   -0.4586   -1.0158 CT        1 <0>       -0.07570
      6 C6          1.5246    0.2189    0.2763 CT        1 <0>       -0.06956
      7 C7         -0.9715    0.6242   -0.3886 CT        1 <0>       -0.05866
      8 C8          0.3649    1.2224    0.1142 CT        1 <0>       -0.05381
      9 C9         -1.6114   -0.5053    0.4513 CT        1 <0>        0.15145
     10 O1         -0.7564   -1.6480    0.4335 OH        1 <0>       -0.59608
     11 H1          3.9594   -0.9680   -0.2598 HC        1 <0>        0.02997
     12 H2          3.4558   -1.8998   -1.6802 HC        1 <0>        0.02997
     13 H3          2.7593   -2.2652   -0.0925 HC        1 <0>        0.02997
     14 H4          0.9731    2.0331   -1.8178 HC        1 <0>        0.03300
     15 H5         -0.0016    3.1566   -0.8495 HC        1 <0>        0.03300
     16 H6          1.6897    2.8610   -0.4311 HC        1 <0>        0.03300
     17 H7         -0.9133    0.2078    2.3846 HC        1 <0>        0.04182
     18 H8         -2.2841   -0.9151    2.4883 HC        1 <0>        0.04182
     19 H9         -2.5140    0.7741    1.9730 HC        1 <0>        0.04182
     20 H10        -2.8022   -1.2245   -1.2391 HC        1 <0>        0.04182
     21 H11        -3.3907   -1.7595    0.3516 HC        1 <0>        0.04182
     22 H12        -3.6664   -0.1053   -0.1639 HC        1 <0>        0.04182
     23 H13         1.1609   -0.9865   -1.4969 HC        1 <0>        0.03967
     24 H14         2.3563    0.2894   -1.7267 HC        1 <0>        0.03967
     25 H15         2.3793    0.7480    0.7192 HC        1 <0>        0.04300
     26 H16         1.2467   -0.5448    1.0112 HC        1 <0>        0.04300
     27 H17        -0.8279    0.2632   -1.4156 HC        1 <0>        0.04723
     28 H18        -1.6960    1.4481   -0.4547 HC        1 <0>        0.04723
     29 H19         0.1868    1.6636    1.1033 HC        1 <0>        0.03782
     30 H20        -1.2190   -2.3441    0.9240 HO        1 <0>        0.39469
@<TRIPOS>BOND
     1    1    5 1
     2    2    8 1
     3    3    9 1
     4    4    9 1
     5    5    6 1
     6    6    8 1
     7    7    8 1
     8    7    9 1
     9    9   10 1
    10    1   11 1
    11    1   12 1
    12    1   13 1
    13    2   14 1
    14    2   15 1
    15    2   16 1
    16    3   17 1
    17    3   18 1
    18    3   19 1
    19    4   20 1
    20    4   21 1
    21    4   22 1
    22    5   23 1
    23    5   24 1
    24    6   25 1
    25    6   26 1
    26    7   27 1
    27    7   28 1
    28    8   29 1
    29   10   30 1
@<TRIPOS>SUBSTRUCTURE
     1 <0>         1 GROUP 0 A     ****
