@<TRIPOS>MOLECULE
AlkEthOH_c1068
   25    24     1     0     0
SMALL
USER_CHARGES

@<TRIPOS>ATOM
      1 C1         -1.3826    0.2369    2.8651 CT        1 <0>       -0.09236
      2 C2         -1.4990   -1.9460   -2.9507 CT        1 <0>       -0.09704
      3 C3          1.9630   -0.1274   -0.8649 CT        1 <0>       -0.14286
      4 C4         -1.2098    0.3138    1.3555 CT        1 <0>       -0.07851
      5 C5          0.2550    0.0973    0.9499 CT        1 <0>       -0.09552
      6 C6         -0.6185   -0.7920   -2.5209 CT        1 <0>        0.14209
      7 C7          0.4780    0.1238   -0.5776 CT        1 <0>        0.35245
      8 O1          0.1118    1.4267   -1.0353 OH        1 <0>       -0.62556
      9 O2         -0.3507   -0.9072   -1.1312 OS        1 <0>       -0.42526
     10 H1         -0.7531    0.9851    3.3569 HC        1 <0>        0.03211
     11 H2         -1.0959   -0.7495    3.2431 HC        1 <0>        0.03211
     12 H3         -2.4221    0.4264    3.1512 HC        1 <0>        0.03211
     13 H4         -1.0034   -2.9037   -2.7691 HC        1 <0>        0.04251
     14 H5         -2.4488   -1.9305   -2.4061 HC        1 <0>        0.04251
     15 H6         -1.7417   -1.8702   -4.0159 HC        1 <0>        0.04251
     16 H7          2.1669   -0.1171   -1.9406 HC        1 <0>        0.04907
     17 H8          2.5939    0.6393   -0.4026 HC        1 <0>        0.04907
     18 H9          2.2890   -1.0855   -0.4453 HC        1 <0>        0.04907
     19 H10        -1.8489   -0.4434    0.8874 HC        1 <0>        0.05312
     20 H11        -1.5578    1.2932    1.0085 HC        1 <0>        0.05312
     21 H12         0.8625    0.8800    1.4224 HC        1 <0>        0.04949
     22 H13         0.5861   -0.8698    1.3500 HC        1 <0>        0.04949
     23 H14        -1.1201    0.1628   -2.7052 H1        1 <0>        0.03676
     24 H15         0.3303   -0.8094   -3.0654 H1        1 <0>        0.03676
     25 H16         0.6551    2.0804   -0.5642 HO        1 <0>        0.41276
@<TRIPOS>BOND
     1    1    4 1
     2    2    6 1
     3    3    7 1
     4    4    5 1
     5    5    7 1
     6    6    9 1
     7    7    8 1
     8    7    9 1
     9    1   10 1
    10    1   11 1
    11    1   12 1
    12    2   13 1
    13    2   14 1
    14    2   15 1
    15    3   16 1
    16    3   17 1
    17    3   18 1
    18    4   19 1
    19    4   20 1
    20    5   21 1
    21    5   22 1
    22    6   23 1
    23    6   24 1
    24    8   25 1
@<TRIPOS>SUBSTRUCTURE
     1 <0>         1 GROUP 0 A     ****
