@<TRIPOS>MOLECULE
AlkEthOH_c490
   28    27     1     0     0
SMALL
USER_CHARGES

@<TRIPOS>ATOM
      1 C1         -3.2344   -2.4567   -0.5165 CT        1 <0>       -0.10736
      2 C2         -3.2134   -0.6165    1.2054 CT        1 <0>       -0.10736
      3 C3          0.3956    0.2688    1.7843 CT        1 <0>       -0.08800
      4 C4          1.2757    1.6844   -0.0860 CT        1 <0>       -0.08800
      5 C5          1.6775   -0.7878   -0.0773 CT        1 <0>       -0.08800
      6 C6         -2.7002   -1.0807   -0.1492 CT        1 <0>        0.14145
      7 C7         -0.6841    0.1252   -0.4961 CT        1 <0>        0.33231
      8 C8          0.6602    0.3181    0.2660 CT        1 <0>       -0.07329
      9 O1         -0.5172    0.2228   -1.9095 OH        1 <0>       -0.62193
     10 O2         -1.2798   -1.1222   -0.1224 OS        1 <0>       -0.45252
     11 H1         -2.9582   -3.2034    0.2342 HC        1 <0>        0.04273
     12 H2         -4.3262   -2.4318   -0.6001 HC        1 <0>        0.04273
     13 H3         -2.8522   -2.7812   -1.4907 HC        1 <0>        0.04273
     14 H4         -2.9367   -1.3193    1.9972 HC        1 <0>        0.04273
     15 H5         -4.3043   -0.5213    1.1874 HC        1 <0>        0.04273
     16 H6         -2.8156    0.3721    1.4598 HC        1 <0>        0.04273
     17 H7         -0.0443   -0.6916    2.0766 HC        1 <0>        0.04008
     18 H8         -0.3004    1.0582    2.0906 HC        1 <0>        0.04008
     19 H9          1.3187    0.4030    2.3588 HC        1 <0>        0.04008
     20 H10         1.4793    1.7592   -1.1601 HC        1 <0>        0.04008
     21 H11         0.5987    2.5037    0.1815 HC        1 <0>        0.04008
     22 H12         2.2182    1.8515    0.4465 HC        1 <0>        0.04008
     23 H13         1.9077   -0.8038   -1.1480 HC        1 <0>        0.04008
     24 H14         1.2842   -1.7764    0.1871 HC        1 <0>        0.04008
     25 H15         2.6190   -0.6613    0.4665 HC        1 <0>        0.04008
     26 H16        -2.9927   -0.3581   -0.9180 H1        1 <0>        0.04822
     27 H17        -1.3655    0.9348   -0.2047 H2        1 <0>        0.07231
     28 H18         0.1028   -0.4651   -2.1981 HO        1 <0>        0.41507
@<TRIPOS>BOND
     1    1    6 1
     2    2    6 1
     3    3    8 1
     4    4    8 1
     5    5    8 1
     6    6   10 1
     7    7    8 1
     8    7    9 1
     9    7   10 1
    10    1   11 1
    11    1   12 1
    12    1   13 1
    13    2   14 1
    14    2   15 1
    15    2   16 1
    16    3   17 1
    17    3   18 1
    18    3   19 1
    19    4   20 1
    20    4   21 1
    21    4   22 1
    22    5   23 1
    23    5   24 1
    24    5   25 1
    25    6   26 1
    26    7   27 1
    27    9   28 1
@<TRIPOS>SUBSTRUCTURE
     1 <0>         1 GROUP 0 A     ****
