@<TRIPOS>MOLECULE
AlkEthOH_c759
   20    19     1     0     0
SMALL
USER_CHARGES

@<TRIPOS>ATOM
      1 C1          0.8901   -0.5096   -0.3823 CT        1 <0>       -0.12396
      2 C2         -1.7223   -3.1475    1.6208 CT        1 <0>        0.11735
      3 C3          1.8852   -0.7571    1.9019 CT        1 <0>        0.14521
      4 C4          0.4586   -2.6361    0.9102 CT        1 <0>        0.10312
      5 C5          1.4591   -1.5061    0.6310 CT        1 <0>        0.15310
      6 O1          2.4198   -1.6690    2.8549 OH        1 <0>       -0.59076
      7 O2          2.6237   -2.0878    0.0371 OH        1 <0>       -0.58622
      8 O3         -0.7639   -2.1181    1.4114 OS        1 <0>       -0.42001
      9 H1          0.5785   -1.0226   -1.2997 HC        1 <0>        0.04823
     10 H2          1.6179    0.2629   -0.6499 HC        1 <0>        0.04823
     11 H3         -0.0060   -0.0193    0.0151 HC        1 <0>        0.04823
     12 H4         -2.6476   -2.7120    2.0058 H1        1 <0>        0.03379
     13 H5         -1.3262   -3.8761    2.3327 H1        1 <0>        0.03379
     14 H6         -1.9245   -3.6440    0.6688 H1        1 <0>        0.03379
     15 H7          1.0379   -0.2384    2.3626 H1        1 <0>        0.03846
     16 H8          2.6683   -0.0255    1.6739 H1        1 <0>        0.03846
     17 H9          0.8629   -3.3514    1.6353 H1        1 <0>        0.04142
     18 H10         0.2527   -3.2005   -0.0069 H1        1 <0>        0.04142
     19 H11         2.6705   -1.1443    3.6317 HO        1 <0>        0.39940
     20 H12         2.3250   -2.5225   -0.7748 HO        1 <0>        0.39695
@<TRIPOS>BOND
     1    1    5 1
     2    2    8 1
     3    3    5 1
     4    3    6 1
     5    4    5 1
     6    4    8 1
     7    5    7 1
     8    1    9 1
     9    1   10 1
    10    1   11 1
    11    2   12 1
    12    2   13 1
    13    2   14 1
    14    3   15 1
    15    3   16 1
    16    4   17 1
    17    4   18 1
    18    6   19 1
    19    7   20 1
@<TRIPOS>SUBSTRUCTURE
     1 <0>         1 GROUP 0 A     ****
