@<TRIPOS>MOLECULE
AlkEthOH_r352
   29    29     1     0     0
SMALL
USER_CHARGES

@<TRIPOS>ATOM
      1 C1          1.0043   -0.1137   -1.9552 CT        1 <0>       -0.07794
      2 C2          0.5444   -1.5450   -1.6652 CT        1 <0>       -0.06764
      3 C3         -0.1179    0.9271   -2.0118 CT        1 <0>       -0.06797
      4 C4          0.7742   -2.0079   -0.2224 CT        1 <0>       -0.12019
      5 C5         -1.0957    0.9851   -0.8320 CT        1 <0>       -0.09990
      6 C6         -0.0242   -1.2408    0.8301 CT        1 <0>        0.33262
      7 C7         -0.4783    1.1398    0.5766 CT        1 <0>        0.16133
      8 C8          0.3265    2.4462    0.6670 CT        1 <0>       -0.10212
      9 C9         -1.5856    1.1907    1.6431 CT        1 <0>       -0.10212
     10 O1          0.4537    0.0978    0.8829 OS        1 <0>       -0.41252
     11 O2          0.1988   -1.8794    2.0869 OH        1 <0>       -0.60673
     12 H1          1.7860    0.1987   -1.2539 HC        1 <0>        0.04850
     13 H2          1.4861   -0.1084   -2.9422 HC        1 <0>        0.04850
     14 H3         -0.5048   -1.6879   -1.9480 HC        1 <0>        0.03899
     15 H4          1.1244   -2.2194   -2.3088 HC        1 <0>        0.03899
     16 H5          0.3359    1.9153   -2.1548 HC        1 <0>        0.03629
     17 H6         -0.7085    0.7440   -2.9194 HC        1 <0>        0.03629
     18 H7          0.5254   -3.0746   -0.1514 HC        1 <0>        0.05336
     19 H8          1.8453   -1.9354    0.0087 HC        1 <0>        0.05336
     20 H9         -1.7822    1.8240   -1.0112 HC        1 <0>        0.04299
     21 H10        -1.7259    0.0893   -0.8718 HC        1 <0>        0.04299
     22 H11        -1.0927   -1.3195    0.6093 H2        1 <0>        0.04718
     23 H12         0.7520    2.5380    1.6614 HC        1 <0>        0.04520
     24 H13        -0.3314    3.2876    0.4733 HC        1 <0>        0.04520
     25 H14         1.1231    2.4292   -0.0701 HC        1 <0>        0.04520
     26 H15        -1.1338    1.2994    2.6237 HC        1 <0>        0.04520
     27 H16        -2.1610    0.2715    1.6061 HC        1 <0>        0.04520
     28 H17        -2.2354    2.0368    1.4446 HC        1 <0>        0.04520
     29 H18        -0.1143   -2.7915    1.9903 HO        1 <0>        0.40454
@<TRIPOS>BOND
     1    1    2 1
     2    1    3 1
     3    2    4 1
     4    3    5 1
     5    4    6 1
     6    5    7 1
     7    6   10 1
     8    6   11 1
     9    7    8 1
    10    7    9 1
    11    7   10 1
    12    1   12 1
    13    1   13 1
    14    2   14 1
    15    2   15 1
    16    3   16 1
    17    3   17 1
    18    4   18 1
    19    4   19 1
    20    5   20 1
    21    5   21 1
    22    6   22 1
    23    8   23 1
    24    8   24 1
    25    8   25 1
    26    9   26 1
    27    9   27 1
    28    9   28 1
    29   11   29 1
@<TRIPOS>SUBSTRUCTURE
     1 <0>         1 GROUP 0 A     ****
