@<TRIPOS>MOLECULE
AlkEthOH_r375
   28    28     1     0     0
SMALL
USER_CHARGES

@<TRIPOS>ATOM
      1 C1          0.9461   -0.5494   -0.0530 CT        1 <0>       -0.07305
      2 C2          1.9103   -0.0706    1.0341 CT        1 <0>       -0.07419
      3 C3          0.7191   -2.0611   -0.0837 CT        1 <0>       -0.07419
      4 C4          1.4269   -0.1864    2.4815 CT        1 <0>       -0.06946
      5 C5         -0.6002   -2.5303    0.5278 CT        1 <0>       -0.06946
      6 C6          1.3184   -1.6255    2.9989 CT        1 <0>       -0.07915
      7 C7         -1.0139   -1.9252    1.8670 CT        1 <0>       -0.07915
      8 C8         -0.1133   -2.1867    3.0871 CT        1 <0>        0.15388
      9 C9         -0.0550   -3.6803    3.4315 CT        1 <0>       -0.12302
     10 O1         -0.7355   -1.5230    4.2028 OH        1 <0>       -0.60492
     11 H1         -0.0001    0.0004   -0.0008 HC        1 <0>        0.03823
     12 H2          1.3974   -0.2674   -1.0139 HC        1 <0>        0.03823
     13 H3          2.8704   -0.5912    0.9264 HC        1 <0>        0.03622
     14 H4          2.1215    0.9894    0.8416 HC        1 <0>        0.03622
     15 H5          0.7056   -2.3783   -1.1355 HC        1 <0>        0.03622
     16 H6          1.5634   -2.5994    0.3574 HC        1 <0>        0.03622
     17 H7          2.1738    0.3285    3.1009 HC        1 <0>        0.04091
     18 H8          0.4950    0.3713    2.6222 HC        1 <0>        0.04091
     19 H9         -1.3988   -2.2979   -0.1899 HC        1 <0>        0.04091
     20 H10        -0.5862   -3.6242    0.6007 HC        1 <0>        0.04091
     21 H11         1.9727   -2.2901    2.4261 HC        1 <0>        0.04683
     22 H12         1.7325   -1.6248    4.0179 HC        1 <0>        0.04683
     23 H13        -1.1878   -0.8487    1.7533 HC        1 <0>        0.04683
     24 H14        -2.0163   -2.3145    2.0995 HC        1 <0>        0.04683
     25 H15        -1.0643   -4.0776    3.4941 HC        1 <0>        0.04197
     26 H16         0.4459   -3.8128    4.3865 HC        1 <0>        0.04197
     27 H17         0.4949   -4.2094    2.6579 HC        1 <0>        0.04197
     28 H18        -1.6318   -1.8790    4.2525 HO        1 <0>        0.39450
@<TRIPOS>BOND
     1    1    2 1
     2    1    3 1
     3    2    4 1
     4    3    5 1
     5    4    6 1
     6    5    7 1
     7    6    8 1
     8    7    8 1
     9    8    9 1
    10    8   10 1
    11    1   11 1
    12    1   12 1
    13    2   13 1
    14    2   14 1
    15    3   15 1
    16    3   16 1
    17    4   17 1
    18    4   18 1
    19    5   19 1
    20    5   20 1
    21    6   21 1
    22    6   22 1
    23    7   23 1
    24    7   24 1
    25    9   25 1
    26    9   26 1
    27    9   27 1
    28   10   28 1
@<TRIPOS>SUBSTRUCTURE
     1 <0>         1 GROUP 0 A     ****
