@<TRIPOS>MOLECULE
AlkEthOH_c123
   21    20     1     0     0
SMALL
USER_CHARGES

@<TRIPOS>ATOM
      1 C1         -0.1198   -1.8393    1.8555 CT        1 <0>       -0.12691
      2 C2          2.4781    1.8531    0.3054 CT        1 <0>       -0.12191
      3 C3         -0.6556   -1.6492    0.4437 CT        1 <0>        0.14994
      4 C4          0.9819    1.5857    0.3174 CT        1 <0>        0.33463
      5 C5         -0.5788   -0.1913   -0.0267 CT        1 <0>        0.33813
      6 O1         -2.0133   -2.0913    0.4300 OH        1 <0>       -0.60190
      7 O2          0.4954    1.9370    1.6081 OH        1 <0>       -0.62750
      8 O3         -1.1215   -0.0983   -1.3406 OH        1 <0>       -0.60345
      9 O4          0.7950    0.2023    0.0208 OS        1 <0>       -0.47725
     10 H1         -0.6535   -1.2089    2.5747 HC        1 <0>        0.04800
     11 H2          0.9486   -1.6097    1.9091 HC        1 <0>        0.04800
     12 H3         -0.2694   -2.8747    2.1810 HC        1 <0>        0.04800
     13 H4          2.9923    1.2383    1.0510 HC        1 <0>        0.05594
     14 H5          2.9043    1.6544   -0.6832 HC        1 <0>        0.05594
     15 H6          2.6852    2.9022    0.5465 HC        1 <0>        0.05594
     16 H7         -0.1013   -2.2928   -0.2491 H1        1 <0>        0.06439
     17 H8          0.5018    2.2167   -0.4393 H2        1 <0>        0.07027
     18 H9         -1.1742    0.4307    0.6526 H2        1 <0>        0.06799
     19 H10        -1.9993   -3.0257    0.6862 HO        1 <0>        0.40558
     20 H11         0.6894    2.8798    1.7434 HO        1 <0>        0.41219
     21 H12        -1.0607    0.8328   -1.6133 HO        1 <0>        0.40398
@<TRIPOS>BOND
     1    1    3 1
     2    2    4 1
     3    3    5 1
     4    3    6 1
     5    4    7 1
     6    4    9 1
     7    5    8 1
     8    5    9 1
     9    1   10 1
    10    1   11 1
    11    1   12 1
    12    2   13 1
    13    2   14 1
    14    2   15 1
    15    3   16 1
    16    4   17 1
    17    5   18 1
    18    6   19 1
    19    7   20 1
    20    8   21 1
@<TRIPOS>SUBSTRUCTURE
     1 <0>         1 GROUP 0 A     ****
