@<TRIPOS>MOLECULE
AlkEthOH_c1163
   12    11     1     0     0
SMALL
USER_CHARGES

@<TRIPOS>ATOM
      1 C1          1.0662   -2.6494    2.1722 CT        1 <0>       -0.09671
      2 C2          0.1829    0.9026    1.8285 CT        1 <0>        0.11571
      3 C3          1.2893   -1.1660    1.9689 CT        1 <0>        0.12674
      4 O1          0.0353   -0.4987    2.0141 OS        1 <0>       -0.42178
      5 H1          0.6018   -2.8447    3.1428 HC        1 <0>        0.04467
      6 H2          0.4226   -3.0545    1.3844 HC        1 <0>        0.04467
      7 H3          2.0152   -3.1932    2.1189 HC        1 <0>        0.04467
      8 H4         -0.7985    1.3816    1.8691 H1        1 <0>        0.03189
      9 H5          0.6545    1.0952    0.8616 H1        1 <0>        0.03189
     10 H6          0.8141    1.3022    2.6257 H1        1 <0>        0.03189
     11 H7          1.7540   -0.9775    0.9965 H1        1 <0>        0.02318
     12 H8          1.9318   -0.7627    2.7574 H1        1 <0>        0.02318
@<TRIPOS>BOND
     1    1    3 1
     2    2    4 1
     3    3    4 1
     4    1    5 1
     5    1    6 1
     6    1    7 1
     7    2    8 1
     8    2    9 1
     9    2   10 1
    10    3   11 1
    11    3   12 1
@<TRIPOS>SUBSTRUCTURE
     1 <0>         1 GROUP 0 A     ****
