@<TRIPOS>MOLECULE
AlkEthOH_r139
   23    23     1     0     0
SMALL
USER_CHARGES

@<TRIPOS>ATOM
      1 C1         -1.3561   -1.9147   -1.0180 CT        1 <0>       -0.09820
      2 C2         -0.7679   -2.0118    0.3911 CT        1 <0>        0.12495
      3 C3         -1.1814   -0.5354   -1.6565 CT        1 <0>        0.14475
      4 C4         -0.2506   -0.2724    1.9622 CT        1 <0>        0.09249
      5 C5          0.7697    0.4924    1.1155 CT        1 <0>        0.31158
      6 C6          0.4183    1.1643   -1.1541 CT        1 <0>        0.52664
      7 O1         -1.2447   -0.9236    1.1751 OS        1 <0>       -0.40589
      8 O2          0.1958   -0.1669   -1.6369 OS        1 <0>       -0.49930
      9 O3          0.0575    1.3506    0.2225 OS        1 <0>       -0.41064
     10 O4          1.5919    1.2519    1.9968 OH        1 <0>       -0.58647
     11 O5          1.7675    1.5656   -1.3975 OH        1 <0>       -0.60333
     12 H1         -0.8788   -2.6774   -1.6441 HC        1 <0>        0.05684
     13 H2         -2.4284   -2.1402   -0.9831 HC        1 <0>        0.05684
     14 H3         -1.0989   -2.9420    0.8652 H1        1 <0>        0.04020
     15 H4          0.3251   -2.0481    0.3428 H1        1 <0>        0.04020
     16 H5         -1.5063   -0.5698   -2.7018 H1        1 <0>        0.04905
     17 H6         -1.8119    0.1999   -1.1423 H1        1 <0>        0.04905
     18 H7          0.2432   -0.9934    2.6245 H1        1 <0>        0.06057
     19 H8         -0.7815    0.4328    2.6125 H1        1 <0>        0.06057
     20 H9          1.4182   -0.2075    0.5776 H2        1 <0>        0.05853
     21 H10        -0.2185    1.8420   -1.7356 H3        1 <0>        0.09680
     22 H11         2.0242    0.6165    2.5885 HO        1 <0>        0.40314
     23 H12         1.8950    1.5264   -2.3571 HO        1 <0>        0.43163
@<TRIPOS>BOND
     1    1    2 1
     2    1    3 1
     3    2    7 1
     4    3    8 1
     5    4    5 1
     6    4    7 1
     7    5    9 1
     8    5   10 1
     9    6    8 1
    10    6    9 1
    11    6   11 1
    12    1   12 1
    13    1   13 1
    14    2   14 1
    15    2   15 1
    16    3   16 1
    17    3   17 1
    18    4   18 1
    19    4   19 1
    20    5   20 1
    21    6   21 1
    22   10   22 1
    23   11   23 1
@<TRIPOS>SUBSTRUCTURE
     1 <0>         1 GROUP 0 A     ****
