@<TRIPOS>MOLECULE
AlkEthOH_r472
   26    26     1     0     0
SMALL
USER_CHARGES

@<TRIPOS>ATOM
      1 C1          0.8832    1.7922    0.8057 CT        1 <0>       -0.10881
      2 C2          1.4926    0.7383   -0.1131 CT        1 <0>       -0.07060
      3 C3         -0.1546    1.1738    1.7272 CT        1 <0>        0.13804
      4 C4          0.4097   -0.1001   -0.8418 CT        1 <0>       -0.05010
      5 C5         -0.5982   -0.6476    0.2255 CT        1 <0>        0.34564
      6 C6         -0.2817    0.8135   -1.8756 CT        1 <0>       -0.08741
      7 C7          1.0986   -1.2471   -1.6162 CT        1 <0>       -0.08741
      8 C8         -1.8056   -1.3697   -0.3858 CT        1 <0>       -0.11043
      9 O1         -1.1361    0.4438    0.9947 OS        1 <0>       -0.45227
     10 O2          0.0823   -1.5838    1.0732 OH        1 <0>       -0.62338
     11 H1          1.6681    2.2787    1.3950 HC        1 <0>        0.04780
     12 H2          0.4109    2.5720    0.1975 HC        1 <0>        0.04780
     13 H3          2.1572    1.2266   -0.8367 HC        1 <0>        0.05092
     14 H4          2.1295    0.0773    0.4898 HC        1 <0>        0.05092
     15 H5          0.3147    0.5183    2.4696 H1        1 <0>        0.04832
     16 H6         -0.6739    1.9635    2.2798 H1        1 <0>        0.04832
     17 H7         -1.0431    0.2449   -2.3961 HC        1 <0>        0.04057
     18 H8          0.4584    1.1715   -2.5813 HC        1 <0>        0.04057
     19 H9         -0.7351    1.6512   -1.3592 HC        1 <0>        0.04057
     20 H10         0.3418   -1.8312   -2.1241 HC        1 <0>        0.04057
     21 H11         1.6383   -1.8695   -0.9138 HC        1 <0>        0.04057
     22 H12         1.7844   -0.8207   -2.3373 HC        1 <0>        0.04057
     23 H13        -2.4585   -1.7207    0.4087 HC        1 <0>        0.05267
     24 H14        -1.4621   -2.2171   -0.9727 HC        1 <0>        0.05267
     25 H15        -2.3522   -0.6832   -1.0267 HC        1 <0>        0.05267
     26 H16        -0.5753   -1.8926    1.7115 HO        1 <0>        0.41122
@<TRIPOS>BOND
     1    1    2 1
     2    1    3 1
     3    2    4 1
     4    3    9 1
     5    4    5 1
     6    4    6 1
     7    4    7 1
     8    5    8 1
     9    5    9 1
    10    5   10 1
    11    1   11 1
    12    1   12 1
    13    2   13 1
    14    2   14 1
    15    3   15 1
    16    3   16 1
    17    6   17 1
    18    6   18 1
    19    6   19 1
    20    7   20 1
    21    7   21 1
    22    7   22 1
    23    8   23 1
    24    8   24 1
    25    8   25 1
    26   10   26 1
@<TRIPOS>SUBSTRUCTURE
     1 <0>         1 GROUP 0 A     ****
