@<TRIPOS>MOLECULE
AlkEthOH_c424
   21    20     1     0     0
SMALL
USER_CHARGES

@<TRIPOS>ATOM
      1 C1         -1.0223    0.4225   -0.1632 CT        1 <0>       -0.09078
      2 C2         -2.7720    0.9158   -1.8831 CT        1 <0>       -0.09078
      3 C3          1.5122   -0.0674   -2.8191 CT        1 <0>       -0.12846
      4 C4         -0.3932    1.5685   -2.3523 CT        1 <0>       -0.07425
      5 C5         -1.3046    0.5383   -1.6612 CT        1 <0>       -0.06507
      6 C6          1.1132    1.2947   -2.2678 CT        1 <0>        0.14192
      7 O1          1.7735    2.3047   -3.0334 OH        1 <0>       -0.60523
      8 H1         -1.1649    1.3831    0.3430 HC        1 <0>        0.03419
      9 H2          0.0020    0.0863    0.0240 HC        1 <0>        0.03419
     10 H3         -1.6927   -0.3077    0.3030 HC        1 <0>        0.03419
     11 H4         -2.9924    1.8954   -1.4459 HC        1 <0>        0.03419
     12 H5         -3.0023    0.9695   -2.9525 HC        1 <0>        0.03419
     13 H6         -3.4454    0.1814   -1.4280 HC        1 <0>        0.03419
     14 H7          1.1710   -0.1858   -3.8533 HC        1 <0>        0.04227
     15 H8          2.6029   -0.1686   -2.8361 HC        1 <0>        0.04227
     16 H9          1.1054   -0.8851   -2.2179 HC        1 <0>        0.04227
     17 H10        -0.5859    2.5666   -1.9347 HC        1 <0>        0.05440
     18 H11        -0.6765    1.6478   -3.4111 HC        1 <0>        0.05440
     19 H12        -1.1481   -0.4456   -2.1188 HC        1 <0>        0.04471
     20 H13         1.4611    1.3970   -1.2349 H1        1 <0>        0.02985
     21 H14         2.7236    2.1458   -2.9319 HO        1 <0>        0.39734
@<TRIPOS>BOND
     1    1    5 1
     2    2    5 1
     3    3    6 1
     4    4    5 1
     5    4    6 1
     6    6    7 1
     7    1    8 1
     8    1    9 1
     9    1   10 1
    10    2   11 1
    11    2   12 1
    12    2   13 1
    13    3   14 1
    14    3   15 1
    15    3   16 1
    16    4   17 1
    17    4   18 1
    18    5   19 1
    19    6   20 1
    20    7   21 1
@<TRIPOS>SUBSTRUCTURE
     1 <0>         1 GROUP 0 A     ****
