@<TRIPOS>MOLECULE
AlkEthOH_c739
   25    24     1     0     0
SMALL
USER_CHARGES

@<TRIPOS>ATOM
      1 C1         -1.2310   -1.4187   -1.4994 CT        1 <0>       -0.09192
      2 C2          2.3570   -0.6163    1.0622 CT        1 <0>       -0.13060
      3 C3         -1.2860   -0.1938    0.7201 CT        1 <0>       -0.08136
      4 C4          0.7655   -0.0392   -0.8494 CT        1 <0>       -0.07652
      5 C5         -2.1244    0.9629    0.1877 CT        1 <0>        0.13201
      6 C6         -0.3983   -0.8999   -0.3213 CT        1 <0>       -0.06049
      7 C7          1.7438    0.4855    0.2085 CT        1 <0>        0.14150
      8 O1         -2.8617    1.5223    1.2687 OH        1 <0>       -0.60558
      9 O2          2.7962    1.1618   -0.4824 OH        1 <0>       -0.60594
     10 H1         -1.6938   -0.5901   -2.0456 HC        1 <0>        0.03569
     11 H2         -0.6240   -1.9962   -2.2037 HC        1 <0>        0.03569
     12 H3         -2.0358   -2.0708   -1.1429 HC        1 <0>        0.03569
     13 H4          2.8502   -1.3617    0.4288 HC        1 <0>        0.04316
     14 H5          3.0978   -0.2237    1.7639 HC        1 <0>        0.04316
     15 H6          1.5838   -1.1491    1.6266 HC        1 <0>        0.04316
     16 H7         -0.6684    0.1679    1.5518 HC        1 <0>        0.05338
     17 H8         -1.9581   -0.9310    1.1799 HC        1 <0>        0.05338
     18 H9          0.3723    0.8150   -1.4166 HC        1 <0>        0.05393
     19 H10         1.3324   -0.6214   -1.5895 HC        1 <0>        0.05393
     20 H11        -1.4965    1.7510   -0.2368 H1        1 <0>        0.02425
     21 H12        -2.8369    0.6243   -0.5696 H1        1 <0>        0.02425
     22 H13         0.0273   -1.7846    0.1692 HC        1 <0>        0.04811
     23 H14         1.2533    1.2256    0.8487 H1        1 <0>        0.03358
     24 H15        -3.3836    2.2531    0.9010 HO        1 <0>        0.39858
     25 H16         3.3802    1.5253    0.1996 HO        1 <0>        0.39896
@<TRIPOS>BOND
     1    1    6 1
     2    2    7 1
     3    3    5 1
     4    3    6 1
     5    4    6 1
     6    4    7 1
     7    5    8 1
     8    7    9 1
     9    1   10 1
    10    1   11 1
    11    1   12 1
    12    2   13 1
    13    2   14 1
    14    2   15 1
    15    3   16 1
    16    3   17 1
    17    4   18 1
    18    4   19 1
    19    5   20 1
    20    5   21 1
    21    6   22 1
    22    7   23 1
    23    8   24 1
    24    9   25 1
@<TRIPOS>SUBSTRUCTURE
     1 <0>         1 GROUP 0 A     ****
