@<TRIPOS>MOLECULE
AlkEthOH_r318
   23    23     1     0     0
SMALL
USER_CHARGES

@<TRIPOS>ATOM
      1 C1         -1.0743    1.4024   -0.7189 CT        1 <0>       -0.07282
      2 C2         -1.8200    0.2588   -0.0483 CT        1 <0>       -0.14641
      3 C3          0.2983    1.5826   -0.0789 CT        1 <0>       -0.10347
      4 C4         -0.9727   -1.0088   -0.0221 CT        1 <0>        0.33779
      5 C5          1.0864    0.2621    0.0011 CT        1 <0>        0.15532
      6 C6          1.6022   -0.1880   -1.3738 CT        1 <0>       -0.10266
      7 C7          2.2944    0.4522    0.9293 CT        1 <0>       -0.10266
      8 O1          0.2842   -0.7637    0.6060 OS        1 <0>       -0.40003
      9 O2         -1.6986   -1.9976    0.7054 OH        1 <0>       -0.58160
     10 H1         -0.9676    1.1992   -1.7905 HC        1 <0>        0.04473
     11 H2         -1.6519    2.3291   -0.6285 HC        1 <0>        0.04473
     12 H3         -2.0716    0.5491    0.9803 HC        1 <0>        0.05568
     13 H4         -2.7735    0.0701   -0.5548 HC        1 <0>        0.05568
     14 H5          0.8685    2.3458   -0.6214 HC        1 <0>        0.05258
     15 H6          0.1375    1.9682    0.9370 HC        1 <0>        0.05258
     16 H7         -0.8218   -1.3932   -1.0365 H2        1 <0>        0.03349
     17 H8          2.1494   -1.1198   -1.2661 HC        1 <0>        0.04525
     18 H9          2.2600    0.5748   -1.7794 HC        1 <0>        0.04525
     19 H10         0.7606   -0.3360   -2.0437 HC        1 <0>        0.04525
     20 H11         2.8537   -0.4769    0.9890 HC        1 <0>        0.04525
     21 H12         1.9481    0.7314    1.9201 HC        1 <0>        0.04525
     22 H13         2.9339    1.2360    0.5339 HC        1 <0>        0.04525
     23 H14        -2.5328   -2.1321    0.2301 HO        1 <0>        0.40557
@<TRIPOS>BOND
     1    1    2 1
     2    1    3 1
     3    2    4 1
     4    3    5 1
     5    4    8 1
     6    4    9 1
     7    5    6 1
     8    5    7 1
     9    5    8 1
    10    1   10 1
    11    1   11 1
    12    2   12 1
    13    2   13 1
    14    3   14 1
    15    3   15 1
    16    4   16 1
    17    6   17 1
    18    6   18 1
    19    6   19 1
    20    7   20 1
    21    7   21 1
    22    7   22 1
    23    9   23 1
@<TRIPOS>SUBSTRUCTURE
     1 <0>         1 GROUP 0 A     ****
