@<TRIPOS>MOLECULE
AlkEthOH_c710
   28    27     1     0     0
SMALL
USER_CHARGES

@<TRIPOS>ATOM
      1 C1         -0.0439    3.8275    1.4856 CT        1 <0>       -0.13033
      2 C2         -1.2111   -3.2346   -0.9538 CT        1 <0>       -0.12319
      3 C3          1.0174   -2.7472    0.0759 CT        1 <0>       -0.12319
      4 C4          0.3114    0.2417    0.0144 CT        1 <0>       -0.07405
      5 C5         -0.3595    1.4823    0.6182 CT        1 <0>       -0.07082
      6 C6         -0.7076   -0.8848   -0.2047 CT        1 <0>       -0.06310
      7 C7          0.6413    2.6132    0.8734 CT        1 <0>        0.13979
      8 C8         -0.1100   -2.1818   -0.7891 CT        1 <0>        0.14974
      9 O1          1.2385    2.9967   -0.3620 OH        1 <0>       -0.59862
     10 O2          0.4364   -1.9130   -2.0819 OH        1 <0>       -0.59617
     11 H1         -0.8430    4.1882    0.8290 HC        1 <0>        0.04204
     12 H2          0.6654    4.6444    1.6500 HC        1 <0>        0.04204
     13 H3         -0.5144    3.5717    2.4415 HC        1 <0>        0.04204
     14 H4         -2.0305   -2.8495   -1.5715 HC        1 <0>        0.04191
     15 H5         -0.8275   -4.1501   -1.4158 HC        1 <0>        0.04191
     16 H6         -1.6526   -3.4943    0.0152 HC        1 <0>        0.04191
     17 H7          1.8155   -2.0065    0.2048 HC        1 <0>        0.04191
     18 H8          0.6678   -2.9857    1.0859 HC        1 <0>        0.04191
     19 H9          1.4532   -3.6478   -0.3684 HC        1 <0>        0.04191
     20 H10         1.1036   -0.0969    0.6911 HC        1 <0>        0.05601
     21 H11         0.7844    0.5046   -0.9384 HC        1 <0>        0.05601
     22 H12        -1.1375    1.8303   -0.0732 HC        1 <0>        0.04494
     23 H13        -0.8516    1.2079    1.5592 HC        1 <0>        0.04494
     24 H14        -1.4769   -0.5106   -0.8934 HC        1 <0>        0.04519
     25 H15        -1.2107   -1.1066    0.7451 HC        1 <0>        0.04519
     26 H16         1.4373    2.2642    1.5408 H1        1 <0>        0.02804
     27 H17         1.8800    3.6939   -0.1546 HO        1 <0>        0.39588
     28 H18         0.7897   -2.7537   -2.4084 HO        1 <0>        0.39616
@<TRIPOS>BOND
     1    1    7 1
     2    2    8 1
     3    3    8 1
     4    4    5 1
     5    4    6 1
     6    5    7 1
     7    6    8 1
     8    7    9 1
     9    8   10 1
    10    1   11 1
    11    1   12 1
    12    1   13 1
    13    2   14 1
    14    2   15 1
    15    2   16 1
    16    3   17 1
    17    3   18 1
    18    3   19 1
    19    4   20 1
    20    4   21 1
    21    5   22 1
    22    5   23 1
    23    6   24 1
    24    6   25 1
    25    7   26 1
    26    9   27 1
    27   10   28 1
@<TRIPOS>SUBSTRUCTURE
     1 <0>         1 GROUP 0 A     ****
