@<TRIPOS>MOLECULE
AlkEthOH_c284
   24    23     1     0     0
SMALL
USER_CHARGES

@<TRIPOS>ATOM
      1 C1          1.0507   -1.2098   -1.3532 CT        1 <0>       -0.08948
      2 C2         -0.3262   -2.0426    0.5467 CT        1 <0>       -0.08948
      3 C3         -1.3350    0.7833    1.0734 CT        1 <0>       -0.08809
      4 C4          1.1556    0.6610    1.1704 CT        1 <0>       -0.08809
      5 C5          0.0475    1.6612   -0.8296 CT        1 <0>        0.13317
      6 C6         -0.1464   -0.8845   -0.4473 CT        1 <0>       -0.05848
      7 C7         -0.0615    0.5330    0.2315 CT        1 <0>       -0.04114
      8 O1         -1.0820    1.7007   -1.6919 OH        1 <0>       -0.59936
      9 H1          1.9905   -1.2247   -0.7944 HC        1 <0>        0.03243
     10 H2          0.9306   -2.1743   -1.8555 HC        1 <0>        0.03243
     11 H3          1.1599   -0.4463   -2.1319 HC        1 <0>        0.03243
     12 H4          0.5175   -2.1201    1.2389 HC        1 <0>        0.03243
     13 H5         -0.3974   -2.9965    0.0115 HC        1 <0>        0.03243
     14 H6         -1.2456   -1.9396    1.1293 HC        1 <0>        0.03243
     15 H7         -2.2440    0.7078    0.4675 HC        1 <0>        0.03717
     16 H8         -1.4284    0.0431    1.8767 HC        1 <0>        0.03717
     17 H9         -1.3232    1.7761    1.5360 HC        1 <0>        0.03717
     18 H10         2.0976    0.4950    0.6384 HC        1 <0>        0.03717
     19 H11         1.1064   -0.0492    2.0018 HC        1 <0>        0.03717
     20 H12         1.2053    1.6648    1.6093 HC        1 <0>        0.03717
     21 H13         0.9365    1.5303   -1.4550 H1        1 <0>        0.02094
     22 H14         0.1445    2.6446   -0.3543 H1        1 <0>        0.02094
     23 H15        -1.0370   -0.8921   -1.0911 HC        1 <0>        0.06414
     24 H16        -0.9313    2.4278   -2.3173 HO        1 <0>        0.39733
@<TRIPOS>BOND
     1    1    6 1
     2    2    6 1
     3    3    7 1
     4    4    7 1
     5    5    7 1
     6    5    8 1
     7    6    7 1
     8    1    9 1
     9    1   10 1
    10    1   11 1
    11    2   12 1
    12    2   13 1
    13    2   14 1
    14    3   15 1
    15    3   16 1
    16    3   17 1
    17    4   18 1
    18    4   19 1
    19    4   20 1
    20    5   21 1
    21    5   22 1
    22    6   23 1
    23    8   24 1
@<TRIPOS>SUBSTRUCTURE
     1 <0>         1 GROUP 0 A     ****
