@<TRIPOS>MOLECULE
AlkEthOH_c312
   20    19     1     0     0
SMALL
USER_CHARGES

@<TRIPOS>ATOM
      1 C1          0.5108   -0.7952    0.5544 CT        1 <0>       -0.08958
      2 C2          0.2493    0.5315    2.6603 CT        1 <0>       -0.08954
      3 C3          1.2273   -2.3856    3.1709 CT        1 <0>       -0.08954
      4 C4          3.2006   -1.8542    1.7262 CT        1 <0>       -0.08954
      5 C5          1.2455   -0.2135    1.7653 CT        1 <0>       -0.06150
      6 C6          2.0681   -1.2569    2.5683 CT        1 <0>       -0.06150
      7 H1         -0.2170   -1.5576    0.8485 HC        1 <0>        0.03316
      8 H2         -0.0356   -0.0068    0.0248 HC        1 <0>        0.03316
      9 H3          1.2068   -1.2418   -0.1614 HC        1 <0>        0.03316
     10 H4         -0.4890   -0.1644    3.0737 HC        1 <0>        0.03316
     11 H5          0.7460    1.0231    3.5025 HC        1 <0>        0.03316
     12 H6         -0.2956    1.2917    2.0911 HC        1 <0>        0.03316
     13 H7          0.7183   -2.9652    2.3955 HC        1 <0>        0.03316
     14 H8          1.8357   -3.0707    3.7697 HC        1 <0>        0.03316
     15 H9          0.4525   -1.9750    3.8285 HC        1 <0>        0.03316
     16 H10         2.8191   -2.4084    0.8628 HC        1 <0>        0.03316
     17 H11         3.7982   -2.5494    2.3263 HC        1 <0>        0.03316
     18 H12         3.8727   -1.0702    1.3620 HC        1 <0>        0.03316
     19 H13         1.9519    0.5380    1.3867 HC        1 <0>        0.04164
     20 H14         2.5440   -0.7248    3.4034 HC        1 <0>        0.04164
@<TRIPOS>BOND
     1    1    5 1
     2    2    5 1
     3    3    6 1
     4    4    6 1
     5    5    6 1
     6    1    7 1
     7    1    8 1
     8    1    9 1
     9    2   10 1
    10    2   11 1
    11    2   12 1
    12    3   13 1
    13    3   14 1
    14    3   15 1
    15    4   16 1
    16    4   17 1
    17    4   18 1
    18    5   19 1
    19    6   20 1
@<TRIPOS>SUBSTRUCTURE
     1 <0>         1 GROUP 0 A     ****
