@<TRIPOS>MOLECULE
AlkEthOH_r1081
   26    26     1     0     0
SMALL
USER_CHARGES

@<TRIPOS>ATOM
      1 C1          0.6996    1.8879    1.3343 CT        1 <0>       -0.10015
      2 C2          0.2738    0.6014    2.0580 CT        1 <0>       -0.10015
      3 C3          1.4237    1.6676    0.0041 CT        1 <0>        0.13522
      4 C4         -1.1802    0.1906    1.7981 CT        1 <0>        0.13522
      5 C5          0.9508   -0.3027   -1.2629 CT        1 <0>        0.13721
      6 C6         -1.0075   -1.3272   -0.0374 CT        1 <0>        0.13721
      7 C7         -0.3132   -1.1657   -1.3997 CT        1 <0>       -0.09496
      8 C8          0.0344   -2.5330   -1.9822 CT        1 <0>       -0.09261
      9 O1          0.5680    1.0321   -0.9353 OS        1 <0>       -0.40365
     10 O2         -1.4493   -0.0510    0.4229 OS        1 <0>       -0.40365
     11 H1         -0.1764    2.5279    1.1744 HC        1 <0>        0.04501
     12 H2          1.3825    2.4414    1.9905 HC        1 <0>        0.04501
     13 H3          0.9597   -0.2140    1.8057 HC        1 <0>        0.04501
     14 H4          0.3726    0.7693    3.1378 HC        1 <0>        0.04501
     15 H5          1.6853    2.6461   -0.4136 H1        1 <0>        0.03954
     16 H6          2.3651    1.1252    0.1506 H1        1 <0>        0.03954
     17 H7         -1.4489   -0.6890    2.3953 H1        1 <0>        0.03954
     18 H8         -1.8436    1.0025    2.1162 H1        1 <0>        0.03954
     19 H9          1.6146   -0.7394   -0.5069 H1        1 <0>        0.03021
     20 H10         1.4969   -0.2644   -2.2116 H1        1 <0>        0.03021
     21 H11        -1.8944   -1.9626   -0.1376 H1        1 <0>        0.03021
     22 H12        -0.3325   -1.8115    0.6790 H1        1 <0>        0.03021
     23 H13        -1.0073   -0.6491   -2.0755 HC        1 <0>        0.08177
     24 H14         0.7231   -3.0538   -1.3184 HC        1 <0>        0.03650
     25 H15         0.5036   -2.4114   -2.9574 HC        1 <0>        0.03650
     26 H16        -0.8707   -3.1284   -2.0943 HC        1 <0>        0.03650
@<TRIPOS>BOND
     1    1    2 1
     2    1    3 1
     3    2    4 1
     4    3    9 1
     5    4   10 1
     6    5    7 1
     7    5    9 1
     8    6    7 1
     9    6   10 1
    10    7    8 1
    11    1   11 1
    12    1   12 1
    13    2   13 1
    14    2   14 1
    15    3   15 1
    16    3   16 1
    17    4   17 1
    18    4   18 1
    19    5   19 1
    20    5   20 1
    21    6   21 1
    22    6   22 1
    23    7   23 1
    24    8   24 1
    25    8   25 1
    26    8   26 1
@<TRIPOS>SUBSTRUCTURE
     1 <0>         1 GROUP 0 A     ****
