@<TRIPOS>MOLECULE
AlkEthOH_c444
   31    30     1     0     0
SMALL
USER_CHARGES

@<TRIPOS>ATOM
      1 C1          1.4571   -1.9451    1.3999 CT        1 <0>       -0.09309
      2 C2          1.3928   -2.9463   -0.8930 CT        1 <0>       -0.09309
      3 C3          0.2239    2.2226    0.7854 CT        1 <0>       -0.10792
      4 C4         -1.9765    3.1959    0.0640 CT        1 <0>       -0.10792
      5 C5         -1.8106    1.9585    2.2434 CT        1 <0>       -0.10792
      6 C6         -0.1336   -0.9922   -0.2953 CT        1 <0>       -0.12235
      7 C7          0.5632   -2.2736    0.2012 CT        1 <0>       -0.07002
      8 C8         -1.0283   -0.3020    0.7400 CT        1 <0>        0.33128
      9 C9         -1.2941    2.0501    0.8082 CT        1 <0>        0.15365
     10 O1         -2.0072   -1.2552    1.1505 OH        1 <0>       -0.60279
     11 O2         -1.6223    0.8446    0.1315 OS        1 <0>       -0.40262
     12 H1          2.2402   -1.2331    1.1181 HC        1 <0>        0.03628
     13 H2          0.8784   -1.5053    2.2192 HC        1 <0>        0.03628
     14 H3          1.9489   -2.8477    1.7777 HC        1 <0>        0.03628
     15 H4          2.1688   -2.2680   -1.2643 HC        1 <0>        0.03628
     16 H5          0.7666   -3.2401   -1.7422 HC        1 <0>        0.03628
     17 H6          1.8990   -3.8400   -0.5158 HC        1 <0>        0.03628
     18 H7          0.7174    1.4022    1.3186 HC        1 <0>        0.04432
     19 H8          0.6109    2.2546   -0.2383 HC        1 <0>        0.04432
     20 H9          0.5202    3.1458    1.2965 HC        1 <0>        0.04432
     21 H10        -3.0658    3.0761    0.0778 HC        1 <0>        0.04432
     22 H11        -1.6805    3.2069   -0.9912 HC        1 <0>        0.04432
     23 H12        -1.7289    4.1674    0.5038 HC        1 <0>        0.04432
     24 H13        -2.8995    1.8347    2.2600 HC        1 <0>        0.04432
     25 H14        -1.3591    1.1188    2.7816 HC        1 <0>        0.04432
     26 H15        -1.5959    2.8812    2.7944 HC        1 <0>        0.04432
     27 H16        -0.7259   -1.2074   -1.1945 HC        1 <0>        0.06401
     28 H17         0.6392   -0.2786   -0.6133 HC        1 <0>        0.06401
     29 H18        -0.1979   -2.9867    0.5414 HC        1 <0>        0.04021
     30 H19        -0.4343   -0.0126    1.6145 H2        1 <0>        0.03353
     31 H20        -1.5304   -2.0104    1.5345 HO        1 <0>        0.40447
@<TRIPOS>BOND
     1    1    7 1
     2    2    7 1
     3    3    9 1
     4    4    9 1
     5    5    9 1
     6    6    7 1
     7    6    8 1
     8    8   10 1
     9    8   11 1
    10    9   11 1
    11    1   12 1
    12    1   13 1
    13    1   14 1
    14    2   15 1
    15    2   16 1
    16    2   17 1
    17    3   18 1
    18    3   19 1
    19    3   20 1
    20    4   21 1
    21    4   22 1
    22    4   23 1
    23    5   24 1
    24    5   25 1
    25    5   26 1
    26    6   27 1
    27    6   28 1
    28    7   29 1
    29    8   30 1
    30   10   31 1
@<TRIPOS>SUBSTRUCTURE
     1 <0>         1 GROUP 0 A     ****
