@<TRIPOS>MOLECULE
AlkEthOH_r462
   29    29     1     0     0
SMALL
USER_CHARGES

@<TRIPOS>ATOM
      1 C1         -0.8572    1.2568    1.4139 CT        1 <0>       -0.10730
      2 C2         -0.7647   -0.2615    1.5455 CT        1 <0>       -0.07006
      3 C3          1.0733   -0.2456   -0.3046 CT        1 <0>       -0.07480
      4 C4         -1.3577    1.6861    0.0407 CT        1 <0>        0.14517
      5 C5          0.5346   -0.8947    1.0001 CT        1 <0>       -0.03727
      6 C6          0.0564    0.2697   -1.3424 CT        1 <0>        0.34801
      7 C7          1.6440   -0.7793    2.0732 CT        1 <0>       -0.09051
      8 C8          0.2823   -2.4032    0.7788 CT        1 <0>       -0.09051
      9 C9          0.7798    0.4446   -2.6859 CT        1 <0>       -0.11664
     10 O1         -0.3854    1.5851   -0.9872 OS        1 <0>       -0.46164
     11 O2         -1.0054   -0.6581   -1.5322 OH        1 <0>       -0.61252
     12 H1         -1.5500    1.6230    2.1703 HC        1 <0>        0.04884
     13 H2          0.1172    1.7005    1.6086 HC        1 <0>        0.04884
     14 H3         -0.8713   -0.5067    2.6028 HC        1 <0>        0.04730
     15 H4         -1.6228   -0.7001    1.0347 HC        1 <0>        0.04730
     16 H5          1.7477    0.5768   -0.0522 HC        1 <0>        0.05438
     17 H6          1.7206   -0.9810   -0.7927 HC        1 <0>        0.05438
     18 H7         -2.3056    1.1636   -0.2334 H1        1 <0>        0.04529
     19 H8         -1.6378    2.7605    0.0967 H1        1 <0>        0.04529
     20 H9          2.5598   -1.2232    1.6944 HC        1 <0>        0.03556
     21 H10         1.3318   -1.3022    2.9723 HC        1 <0>        0.03556
     22 H11         1.8159    0.2680    2.3031 HC        1 <0>        0.03556
     23 H12         1.1881   -2.8533    0.3968 HC        1 <0>        0.03556
     24 H13        -0.5224   -2.5187    0.0660 HC        1 <0>        0.03556
     25 H14         0.0117   -2.8514    1.7249 HC        1 <0>        0.03556
     26 H15         0.0774    0.8079   -3.4309 HC        1 <0>        0.05140
     27 H16         1.1851   -0.5111   -3.0061 HC        1 <0>        0.05140
     28 H17         1.5887    1.1609   -2.5711 HC        1 <0>        0.05140
     29 H18        -1.5903   -0.2602   -2.1910 HO        1 <0>        0.40889
@<TRIPOS>BOND
     1    1    2 1
     2    1    4 1
     3    2    5 1
     4    3    5 1
     5    3    6 1
     6    4   10 1
     7    5    7 1
     8    5    8 1
     9    6    9 1
    10    6   10 1
    11    6   11 1
    12    1   12 1
    13    1   13 1
    14    2   14 1
    15    2   15 1
    16    3   16 1
    17    3   17 1
    18    4   18 1
    19    4   19 1
    20    7   20 1
    21    7   21 1
    22    7   22 1
    23    8   23 1
    24    8   24 1
    25    8   25 1
    26    9   26 1
    27    9   27 1
    28    9   28 1
    29   11   29 1
@<TRIPOS>SUBSTRUCTURE
     1 <0>         1 GROUP 0 A     ****
