@<TRIPOS>MOLECULE
AlkEthOH_r357
   27    27     1     0     0
SMALL
USER_CHARGES

@<TRIPOS>ATOM
      1 C1          0.4136    0.1745    1.0012 CT        1 <0>       -0.07378
      2 C2         -0.4252   -0.5754    2.0303 CT        1 <0>       -0.07378
      3 C3          1.9045   -0.1604    1.0055 CT        1 <0>       -0.07086
      4 C4         -0.3135   -2.0985    1.9782 CT        1 <0>       -0.07086
      5 C5          2.1972   -1.5485    0.4344 CT        1 <0>       -0.06519
      6 C6          1.0306   -2.6077    2.5007 CT        1 <0>       -0.06519
      7 C7          2.1630   -2.7148    1.4511 CT        1 <0>       -0.04988
      8 C8          2.0097   -4.0329    0.6611 CT        1 <0>       -0.08737
      9 C9          3.5089   -2.7797    2.2057 CT        1 <0>       -0.08737
     10 H1         -0.0000   -0.0006    0.0001 HC        1 <0>        0.03574
     11 H2          0.3000    1.2492    1.1913 HC        1 <0>        0.03574
     12 H3         -0.1670   -0.2211    3.0362 HC        1 <0>        0.03574
     13 H4         -1.4761   -0.3007    1.8740 HC        1 <0>        0.03574
     14 H5          2.4024    0.5757    0.3613 HC        1 <0>        0.03813
     15 H6          2.3319   -0.0331    2.0058 HC        1 <0>        0.03813
     16 H7         -1.0985   -2.5026    2.6303 HC        1 <0>        0.03813
     17 H8         -0.5269   -2.4726    0.9714 HC        1 <0>        0.03813
     18 H9          1.5008   -1.7468   -0.3912 HC        1 <0>        0.03758
     19 H10         3.1912   -1.5225   -0.0331 HC        1 <0>        0.03758
     20 H11         1.3501   -1.9720    3.3372 HC        1 <0>        0.03758
     21 H12         0.8707   -3.6003    2.9439 HC        1 <0>        0.03758
     22 H13         1.9840   -4.8607    1.3590 HC        1 <0>        0.03308
     23 H14         2.8529   -4.1410   -0.0100 HC        1 <0>        0.03308
     24 H15         1.0875   -3.9982    0.0941 HC        1 <0>        0.03308
     25 H16         3.4760   -3.5980    2.9145 HC        1 <0>        0.03308
     26 H17         3.6650   -1.8439    2.7282 HC        1 <0>        0.03308
     27 H18         4.3060   -2.9417    1.4904 HC        1 <0>        0.03308
@<TRIPOS>BOND
     1    1    2 1
     2    1    3 1
     3    2    4 1
     4    3    5 1
     5    4    6 1
     6    5    7 1
     7    6    7 1
     8    7    8 1
     9    7    9 1
    10    1   10 1
    11    1   11 1
    12    2   12 1
    13    2   13 1
    14    3   14 1
    15    3   15 1
    16    4   16 1
    17    4   17 1
    18    5   18 1
    19    5   19 1
    20    6   20 1
    21    6   21 1
    22    8   22 1
    23    8   23 1
    24    8   24 1
    25    9   25 1
    26    9   26 1
    27    9   27 1
@<TRIPOS>SUBSTRUCTURE
     1 <0>         1 GROUP 0 A     ****
