@<TRIPOS>MOLECULE
AlkEthOH_c190
   22    21     1     0     0
SMALL
USER_CHARGES

@<TRIPOS>ATOM
      1 C1         -0.4645   -0.0646    0.9894 CT        1 <0>       -0.10799
      2 C2          1.6273    0.6910    2.1567 CT        1 <0>       -0.10799
      3 C3          1.2036   -1.7604    1.8118 CT        1 <0>       -0.10799
      4 C4         -1.8017   -1.4385    4.6972 CT        1 <0>        0.12980
      5 C5         -1.1266   -1.4328    3.3392 CT        1 <0>        0.12428
      6 C6          0.5609   -0.3988    2.0719 CT        1 <0>        0.15041
      7 O1         -0.8373   -1.7553    5.6936 OH        1 <0>       -0.59708
      8 O2         -0.1082   -0.4451    3.3327 OS        1 <0>       -0.42123
      9 H1         -1.2317   -0.8445    0.9253 HC        1 <0>        0.04354
     10 H2         -0.9578    0.8935    1.1830 HC        1 <0>        0.04354
     11 H3          0.0103   -0.0162    0.0027 HC        1 <0>        0.04354
     12 H4          2.3651    0.4554    2.9322 HC        1 <0>        0.04354
     13 H5          1.1816    1.6524    2.4367 HC        1 <0>        0.04354
     14 H6          2.1531    0.8168    1.2047 HC        1 <0>        0.04354
     15 H7          1.9391   -2.0003    2.5882 HC        1 <0>        0.04354
     16 H8          0.4566   -2.5604    1.7845 HC        1 <0>        0.04354
     17 H9          1.7476   -1.7592    0.8603 HC        1 <0>        0.04354
     18 H10        -2.5955   -2.1904    4.7399 H1        1 <0>        0.03307
     19 H11        -2.2160   -0.4515    4.9229 H1        1 <0>        0.03307
     20 H12        -1.8399   -1.1920    2.5448 H1        1 <0>        0.03992
     21 H13        -0.6640   -2.4033    3.1375 H1        1 <0>        0.03992
     22 H14        -1.3035   -1.7497    6.5449 HO        1 <0>        0.39995
@<TRIPOS>BOND
     1    1    6 1
     2    2    6 1
     3    3    6 1
     4    4    5 1
     5    4    7 1
     6    5    8 1
     7    6    8 1
     8    1    9 1
     9    1   10 1
    10    1   11 1
    11    2   12 1
    12    2   13 1
    13    2   14 1
    14    3   15 1
    15    3   16 1
    16    3   17 1
    17    4   18 1
    18    4   19 1
    19    5   20 1
    20    5   21 1
    21    7   22 1
@<TRIPOS>SUBSTRUCTURE
     1 <0>         1 GROUP 0 A     ****
