@<TRIPOS>MOLECULE
AlkEthOH_c448
   26    25     1     0     0
SMALL
USER_CHARGES

@<TRIPOS>ATOM
      1 C1          0.1642    1.3472    1.3856 CT        1 <0>       -0.09367
      2 C2          1.2293   -0.2424    2.9985 CT        1 <0>       -0.09367
      3 C3         -2.4159   -3.2543   -2.5823 CT        1 <0>       -0.12657
      4 C4         -0.0302   -1.1215    0.9620 CT        1 <0>       -0.10552
      5 C5          0.8660   -0.0054    1.5323 CT        1 <0>       -0.06785
      6 C6         -1.5747   -2.0201   -2.3009 CT        1 <0>        0.34190
      7 C7         -0.3800   -0.9671   -0.5237 CT        1 <0>        0.34358
      8 O1         -2.3721   -0.8810   -2.6060 OH        1 <0>       -0.63635
      9 O2          0.8237   -0.8988   -1.2880 OH        1 <0>       -0.63387
     10 O3         -1.1982   -2.0664   -0.9251 OS        1 <0>       -0.41584
     11 H1         -0.7759    1.3610    1.9476 HC        1 <0>        0.03642
     12 H2         -0.0647    1.5649    0.3368 HC        1 <0>        0.03642
     13 H3          0.7938    2.1562    1.7710 HC        1 <0>        0.03642
     14 H4          0.3333   -0.2956    3.6260 HC        1 <0>        0.03642
     15 H5          1.8600    0.5686    3.3785 HC        1 <0>        0.03642
     16 H6          1.7907   -1.1731    3.1242 HC        1 <0>        0.03642
     17 H7         -3.3089   -3.2732   -1.9495 HC        1 <0>        0.05290
     18 H8         -1.8458   -4.1666   -2.3722 HC        1 <0>        0.05290
     19 H9         -2.7170   -3.2915   -3.6340 HC        1 <0>        0.05290
     20 H10         0.4367   -2.1022    1.1205 HC        1 <0>        0.06513
     21 H11        -0.9653   -1.1393    1.5386 HC        1 <0>        0.06513
     22 H12         1.7958    0.0391    0.9519 HC        1 <0>        0.04009
     23 H13        -0.6911   -2.0329   -2.9498 H2        1 <0>        0.05872
     24 H14        -0.9139   -0.0247   -0.6804 H2        1 <0>        0.05752
     25 H15        -2.6137   -0.9401   -3.5457 HO        1 <0>        0.41187
     26 H16         1.3353   -0.1308   -0.9835 HO        1 <0>        0.41218
@<TRIPOS>BOND
     1    1    5 1
     2    2    5 1
     3    3    6 1
     4    4    5 1
     5    4    7 1
     6    6    8 1
     7    6   10 1
     8    7    9 1
     9    7   10 1
    10    1   11 1
    11    1   12 1
    12    1   13 1
    13    2   14 1
    14    2   15 1
    15    2   16 1
    16    3   17 1
    17    3   18 1
    18    3   19 1
    19    4   20 1
    20    4   21 1
    21    5   22 1
    22    6   23 1
    23    7   24 1
    24    8   25 1
    25    9   26 1
@<TRIPOS>SUBSTRUCTURE
     1 <0>         1 GROUP 0 A     ****
