@<TRIPOS>MOLECULE
AlkEthOH_r144
   21    21     1     0     0
SMALL
USER_CHARGES

@<TRIPOS>ATOM
      1 C1         -2.1518   -1.4904    2.6377 CT        1 <0>       -0.14671
      2 C2         -0.0321    0.3060    1.0538 CT        1 <0>       -0.14662
      3 C3         -3.0676   -0.5905    1.8068 CT        1 <0>        0.13747
      4 C4         -1.3477    1.0117    1.3476 CT        1 <0>        0.13747
      5 C5         -0.8760   -1.9778    1.9504 CT        1 <0>        0.15111
      6 C6          0.2293   -0.9134    1.9401 CT        1 <0>        0.15111
      7 O1         -2.4232    0.2316    0.8455 OS        1 <0>       -0.40589
      8 O2         -1.1762   -2.4192    0.6301 OH        1 <0>       -0.58363
      9 O3          1.4339   -1.5420    1.4926 OH        1 <0>       -0.58363
     10 H1         -1.8841   -0.9760    3.5693 HC        1 <0>        0.05870
     11 H2         -2.7469   -2.3599    2.9466 HC        1 <0>        0.05870
     12 H3         -0.0010    0.0002   -0.0003 HC        1 <0>        0.05870
     13 H4          0.7963    1.0134    1.1854 HC        1 <0>        0.05870
     14 H5         -3.7718   -1.2187    1.2495 H1        1 <0>        0.04422
     15 H6         -3.6743    0.0400    2.4674 H1        1 <0>        0.04422
     16 H7         -1.4712    1.2508    2.4102 H1        1 <0>        0.04422
     17 H8         -1.3642    1.9591    0.7980 H1        1 <0>        0.04422
     18 H9         -0.5075   -2.8551    2.4962 H1        1 <0>        0.03908
     19 H10         0.4123   -0.5779    2.9681 H1        1 <0>        0.03908
     20 H11        -1.8161   -3.1430    0.7184 HO        1 <0>        0.39974
     21 H12         2.1344   -0.8795    1.5817 HO        1 <0>        0.39974
@<TRIPOS>BOND
     1    1    3 1
     2    1    5 1
     3    2    4 1
     4    2    6 1
     5    3    7 1
     6    4    7 1
     7    5    6 1
     8    5    8 1
     9    6    9 1
    10    1   10 1
    11    1   11 1
    12    2   12 1
    13    2   13 1
    14    3   14 1
    15    3   15 1
    16    4   16 1
    17    4   17 1
    18    5   18 1
    19    6   19 1
    20    8   20 1
    21    9   21 1
@<TRIPOS>SUBSTRUCTURE
     1 <0>         1 GROUP 0 A     ****
