@<TRIPOS>MOLECULE
AlkEthOH_r846
   21    21     1     0     0
SMALL
USER_CHARGES

@<TRIPOS>ATOM
      1 C1          0.8238   -1.4211   -0.0984 CT        1 <0>       -0.09215
      2 C2          0.4903   -0.7538    1.2511 CT        1 <0>       -0.09053
      3 C3          0.6392   -0.0368   -0.7679 CT        1 <0>       -0.07526
      4 C4         -0.2564    0.3639    0.4614 CT        1 <0>       -0.07002
      5 C5          0.0434   -0.0364   -2.1627 CT        1 <0>       -0.08231
      6 C6         -1.7604    0.1107    0.3375 CT        1 <0>       -0.07658
      7 C7          0.0200    1.7736    0.9791 CT        1 <0>       -0.07658
      8 H1          1.8259   -1.8520   -0.1743 HC        1 <0>        0.04810
      9 H2          0.0934   -2.1783   -0.4060 HC        1 <0>        0.04810
     10 H3         -0.1155   -1.3569    1.9336 HC        1 <0>        0.04865
     11 H4          1.3810   -0.4113    1.7920 HC        1 <0>        0.04865
     12 H5          1.5888    0.5202   -0.7854 HC        1 <0>        0.05709
     13 H6         -0.9016   -0.5842   -2.1721 HC        1 <0>        0.03462
     14 H7          0.7285   -0.5119   -2.8683 HC        1 <0>        0.03462
     15 H8         -0.1440    0.9872   -2.4951 HC        1 <0>        0.03462
     16 H9         -2.2235    0.9212   -0.2210 HC        1 <0>        0.03483
     17 H10        -2.2056    0.0576    1.3285 HC        1 <0>        0.03483
     18 H11        -1.9319   -0.8285   -0.1840 HC        1 <0>        0.03483
     19 H12        -0.5311    2.5002    0.3842 HC        1 <0>        0.03483
     20 H13         1.0848    1.9903    0.9098 HC        1 <0>        0.03483
     21 H14        -0.2932    1.8532    2.0189 HC        1 <0>        0.03483
@<TRIPOS>BOND
     1    1    2 1
     2    1    3 1
     3    2    4 1
     4    3    4 1
     5    3    5 1
     6    4    6 1
     7    4    7 1
     8    1    8 1
     9    1    9 1
    10    2   10 1
    11    2   11 1
    12    3   12 1
    13    5   13 1
    14    5   14 1
    15    5   15 1
    16    6   16 1
    17    6   17 1
    18    6   18 1
    19    7   19 1
    20    7   20 1
    21    7   21 1
@<TRIPOS>SUBSTRUCTURE
     1 <0>         1 GROUP 0 A     ****
