@<TRIPOS>MOLECULE
AlkEthOH_c696
   29    28     1     0     0
SMALL
USER_CHARGES

@<TRIPOS>ATOM
      1 C1          2.8139   -1.9306   -0.7629 CT        1 <0>       -0.12993
      2 C2         -1.6977    2.3108    1.3527 CT        1 <0>       -0.10860
      3 C3         -3.4444    1.0752    0.0367 CT        1 <0>       -0.10860
      4 C4         -1.7572   -0.2052    1.3867 CT        1 <0>       -0.10860
      5 C5          0.8629   -0.2793   -0.7926 CT        1 <0>       -0.11899
      6 C6          2.1864   -0.6917   -0.1385 CT        1 <0>        0.13726
      7 C7          0.2321    0.9924   -0.2221 CT        1 <0>        0.33070
      8 C8         -2.0059    1.0483    0.5490 CT        1 <0>        0.15063
      9 O1          1.9440   -0.9560    1.2440 OH        1 <0>       -0.60912
     10 O2          0.9445    2.0987   -0.7727 OH        1 <0>       -0.60275
     11 O3         -1.1487    1.0129   -0.5838 OS        1 <0>       -0.40224
     12 H1          2.1201   -2.7782   -0.7358 HC        1 <0>        0.04556
     13 H2          3.7019   -2.2335   -0.1971 HC        1 <0>        0.04556
     14 H3          3.1130   -1.7549   -1.8001 HC        1 <0>        0.04556
     15 H4         -0.6661    2.2953    1.7222 HC        1 <0>        0.04511
     16 H5         -1.8386    3.2155    0.7524 HC        1 <0>        0.04511
     17 H6         -2.3418    2.3783    2.2370 HC        1 <0>        0.04511
     18 H7         -3.6699    0.1712   -0.5405 HC        1 <0>        0.04511
     19 H8         -3.6014    1.9217   -0.6415 HC        1 <0>        0.04511
     20 H9         -4.1644    1.1507    0.8580 HC        1 <0>        0.04511
     21 H10        -1.9782   -1.1109    0.8104 HC        1 <0>        0.04511
     22 H11        -0.7198   -0.2600    1.7323 HC        1 <0>        0.04511
     23 H12        -2.4172   -0.2265    2.2614 HC        1 <0>        0.04511
     24 H13         0.1542   -1.1126   -0.6856 HC        1 <0>        0.07347
     25 H14         0.9959   -0.1705   -1.8774 HC        1 <0>        0.07347
     26 H15         2.9017    0.1364   -0.1800 H1        1 <0>        0.02485
     27 H16         0.3468    1.0085    0.8682 H2        1 <0>        0.05380
     28 H17         2.8060   -1.1543    1.6394 HO        1 <0>        0.40277
     29 H18         1.8736    2.0064   -0.5019 HO        1 <0>        0.39921
@<TRIPOS>BOND
     1    1    6 1
     2    2    8 1
     3    3    8 1
     4    4    8 1
     5    5    6 1
     6    5    7 1
     7    6    9 1
     8    7   10 1
     9    7   11 1
    10    8   11 1
    11    1   12 1
    12    1   13 1
    13    1   14 1
    14    2   15 1
    15    2   16 1
    16    2   17 1
    17    3   18 1
    18    3   19 1
    19    3   20 1
    20    4   21 1
    21    4   22 1
    22    4   23 1
    23    5   24 1
    24    5   25 1
    25    6   26 1
    26    7   27 1
    27    9   28 1
    28   10   29 1
@<TRIPOS>SUBSTRUCTURE
     1 <0>         1 GROUP 0 A     ****
