@<TRIPOS>MOLECULE
AlkEthOH_r845
   15    15     1     0     0
SMALL
USER_CHARGES

@<TRIPOS>ATOM
      1 C1          0.1728    1.4985   -0.3961 CT        1 <0>       -0.09603
      2 C2          0.0786    0.7047    0.9233 CT        1 <0>       -0.09135
      3 C3          0.2738    0.1413   -1.1226 CT        1 <0>       -0.09135
      4 C4         -0.4756   -0.4771    0.0861 CT        1 <0>       -0.08609
      5 C5         -0.0496   -1.8674    0.5093 CT        1 <0>       -0.08041
      6 H1         -0.7358    2.0620   -0.6375 HC        1 <0>        0.04822
      7 H2          1.0389    2.1573   -0.4950 HC        1 <0>        0.04822
      8 H3          1.0522    0.5153    1.3905 HC        1 <0>        0.04822
      9 H4         -0.6017    1.1152    1.6739 HC        1 <0>        0.04822
     10 H5         -0.2436    0.0795   -2.0834 HC        1 <0>        0.04822
     11 H6          1.3041   -0.2114   -1.2493 HC        1 <0>        0.04822
     12 H7         -1.5671   -0.4213   -0.0331 HC        1 <0>        0.05136
     13 H8          1.0363   -1.9153    0.6258 HC        1 <0>        0.03485
     14 H9         -0.3503   -2.6038   -0.2406 HC        1 <0>        0.03485
     15 H10        -0.5125   -2.1350    1.4629 HC        1 <0>        0.03485
@<TRIPOS>BOND
     1    1    2 1
     2    1    3 1
     3    2    4 1
     4    3    4 1
     5    4    5 1
     6    1    6 1
     7    1    7 1
     8    2    8 1
     9    2    9 1
    10    3   10 1
    11    3   11 1
    12    4   12 1
    13    5   13 1
    14    5   14 1
    15    5   15 1
@<TRIPOS>SUBSTRUCTURE
     1 <0>         1 GROUP 0 A     ****
