@<TRIPOS>MOLECULE
AlkEthOH_c1037
   24    23     1     0     0
SMALL
USER_CHARGES

@<TRIPOS>ATOM
      1 C1          0.4042   -0.5581    0.6343 CT        1 <0>       -0.09101
      2 C2          4.3842    1.4410    0.5133 CT        1 <0>       -0.08896
      3 C3          3.4968    3.0645    2.1910 CT        1 <0>       -0.08896
      4 C4          1.8653   -0.2736    0.9534 CT        1 <0>       -0.07871
      5 C5          2.0480    1.1513    1.4878 CT        1 <0>       -0.06910
      6 C6          4.1533    0.7448    2.9094 CT        1 <0>        0.13703
      7 C7          3.5154    1.5771    1.7763 CT        1 <0>       -0.04881
      8 O1          3.3881    0.8402    4.1037 OH        1 <0>       -0.59967
      9 H1          0.0177    0.1534   -0.1023 HC        1 <0>        0.03266
     10 H2          0.2794   -1.5696    0.2346 HC        1 <0>        0.03266
     11 H3         -0.2046   -0.4736    1.5400 HC        1 <0>        0.03266
     12 H4          4.4373    0.4036    0.1673 HC        1 <0>        0.03688
     13 H5          5.4119    1.7706    0.7054 HC        1 <0>        0.03688
     14 H6          3.9886    2.0502   -0.3071 HC        1 <0>        0.03688
     15 H7          2.8885    3.2159    3.0899 HC        1 <0>        0.03688
     16 H8          4.5050    3.4345    2.4074 HC        1 <0>        0.03688
     17 H9          3.0758    3.6917    1.3971 HC        1 <0>        0.03688
     18 H10         2.2083   -1.0062    1.6910 HC        1 <0>        0.03660
     19 H11         2.4553   -0.4209    0.0432 HC        1 <0>        0.03660
     20 H12         1.4520    1.2582    2.4039 HC        1 <0>        0.04777
     21 H13         1.6118    1.8527    0.7633 HC        1 <0>        0.04777
     22 H14         5.1665    1.1020    3.1269 H1        1 <0>        0.02147
     23 H15         4.2281   -0.3122    2.6338 H1        1 <0>        0.02147
     24 H16         3.8407    0.2984    4.7700 HO        1 <0>        0.39725
@<TRIPOS>BOND
     1    1    4 1
     2    2    7 1
     3    3    7 1
     4    4    5 1
     5    5    7 1
     6    6    7 1
     7    6    8 1
     8    1    9 1
     9    1   10 1
    10    1   11 1
    11    2   12 1
    12    2   13 1
    13    2   14 1
    14    3   15 1
    15    3   16 1
    16    3   17 1
    17    4   18 1
    18    4   19 1
    19    5   20 1
    20    5   21 1
    21    6   22 1
    22    6   23 1
    23    8   24 1
@<TRIPOS>SUBSTRUCTURE
     1 <0>         1 GROUP 0 A     ****
