@<TRIPOS>MOLECULE
AlkEthOH_r893
   34    34     1     0     0
SMALL
USER_CHARGES

@<TRIPOS>ATOM
      1 C1          2.3921   -1.1531   -0.3795 CT        1 <0>       -0.06885
      2 C2          1.1447   -1.4928   -1.1912 CT        1 <0>       -0.08139
      3 C3          2.2899   -0.0619    0.6842 CT        1 <0>       -0.07088
      4 C4          0.6372   -0.3994   -2.1335 CT        1 <0>       -0.06205
      5 C5          1.2263   -0.2799    1.7678 CT        1 <0>       -0.08919
      6 C6         -0.1286    0.7898   -1.5350 CT        1 <0>       -0.09540
      7 C7         -0.0792    0.4954    1.5237 CT        1 <0>        0.14391
      8 C8         -1.3168    0.4685   -0.5989 CT        1 <0>        0.15970
      9 C9         -0.8801    0.5784    2.8229 CT        1 <0>       -0.10811
     10 C10        -2.3056   -0.4895   -1.2862 CT        1 <0>       -0.10352
     11 C11        -2.0901    1.7570   -0.2620 CT        1 <0>       -0.10352
     12 O1         -0.8898   -0.2125    0.5878 OS        1 <0>       -0.42389
     13 H1          2.7258   -2.0753    0.1152 HC        1 <0>        0.03243
     14 H2          3.1994   -0.8816   -1.0719 HC        1 <0>        0.03243
     15 H3          1.4179   -2.3470   -1.8269 HC        1 <0>        0.04998
     16 H4          0.3532   -1.8782   -0.5447 HC        1 <0>        0.04998
     17 H5          3.2655   -0.0407    1.1900 HC        1 <0>        0.03456
     18 H6          2.1958    0.9256    0.2247 HC        1 <0>        0.03456
     19 H7          1.4837   -0.0063   -2.7111 HC        1 <0>        0.03301
     20 H8         -0.0169   -0.8792   -2.8732 HC        1 <0>        0.03301
     21 H9          1.0251   -1.3509    1.8899 HC        1 <0>        0.05003
     22 H10         1.6603    0.0738    2.7122 HC        1 <0>        0.05003
     23 H11         0.5817    1.4460   -1.0259 HC        1 <0>        0.04070
     24 H12        -0.5039    1.3827   -2.3810 HC        1 <0>        0.04070
     25 H13         0.1559    1.5124    1.1951 H1        1 <0>        0.04287
     26 H14        -1.1254   -0.4240    3.1686 HC        1 <0>        0.04074
     27 H15        -1.8008    1.1332    2.6526 HC        1 <0>        0.04074
     28 H16        -0.2924    1.0860    3.5855 HC        1 <0>        0.04074
     29 H17        -3.1284   -0.6992   -0.6109 HC        1 <0>        0.04278
     30 H18        -1.7937   -1.4127   -1.5365 HC        1 <0>        0.04278
     31 H19        -2.6841   -0.0245   -2.1904 HC        1 <0>        0.04278
     32 H20        -2.9187    1.5140    0.3942 HC        1 <0>        0.04278
     33 H21        -2.4658    2.1972   -1.1792 HC        1 <0>        0.04278
     34 H22        -1.4226    2.4540    0.2328 HC        1 <0>        0.04278
@<TRIPOS>BOND
     1    1    2 1
     2    1    3 1
     3    2    4 1
     4    3    5 1
     5    4    6 1
     6    5    7 1
     7    6    8 1
     8    7    9 1
     9    7   12 1
    10    8   10 1
    11    8   11 1
    12    8   12 1
    13    1   13 1
    14    1   14 1
    15    2   15 1
    16    2   16 1
    17    3   17 1
    18    3   18 1
    19    4   19 1
    20    4   20 1
    21    5   21 1
    22    5   22 1
    23    6   23 1
    24    6   24 1
    25    7   25 1
    26    9   26 1
    27    9   27 1
    28    9   28 1
    29   10   29 1
    30   10   30 1
    31   10   31 1
    32   11   32 1
    33   11   33 1
    34   11   34 1
@<TRIPOS>SUBSTRUCTURE
     1 <0>         1 GROUP 0 A     ****
