@<TRIPOS>MOLECULE
AlkEthOH_r219
   22    22     1     0     0
SMALL
USER_CHARGES

@<TRIPOS>ATOM
      1 C1         -0.4721    0.8754   -0.4939 CT        1 <0>       -0.09292
      2 C2          0.3452   -0.5892    0.8702 CT        1 <0>       -0.09292
      3 C3         -0.9801   -0.4803    0.0678 CT        1 <0>       -0.06535
      4 C4          0.9636    0.5060   -0.0373 CT        1 <0>        0.12405
      5 C5         -2.2222   -0.3564    0.9452 CT        1 <0>       -0.07949
      6 C6         -1.1523   -1.5659   -0.9947 CT        1 <0>       -0.07949
      7 C7          1.6895    1.6063    0.7234 CT        1 <0>       -0.10799
      8 O1          1.8283    0.0042   -1.0806 OH        1 <0>       -0.58920
      9 H1         -0.5964    1.0121   -1.5735 HC        1 <0>        0.05850
     10 H2         -0.8883    1.7602    0.0035 HC        1 <0>        0.05850
     11 H3          0.2651   -0.3038    1.9263 HC        1 <0>        0.05850
     12 H4          0.8411   -1.5647    0.8260 HC        1 <0>        0.05850
     13 H5         -2.5224   -1.3403    1.3036 HC        1 <0>        0.03709
     14 H6         -3.0397    0.0774    0.3709 HC        1 <0>        0.03709
     15 H7         -2.0093    0.2838    1.8004 HC        1 <0>        0.03709
     16 H8         -1.5091   -2.4826   -0.5293 HC        1 <0>        0.03709
     17 H9         -0.1980   -1.7593   -1.4807 HC        1 <0>        0.03709
     18 H10        -1.8741   -1.2389   -1.7407 HC        1 <0>        0.03709
     19 H11         2.6871    1.2695    1.0076 HC        1 <0>        0.04321
     20 H12         1.1349    1.8662    1.6256 HC        1 <0>        0.04321
     21 H13         1.7823    2.4951    0.0982 HC        1 <0>        0.04321
     22 H14         2.6713   -0.1782   -0.6493 HO        1 <0>        0.39714
@<TRIPOS>BOND
     1    1    3 1
     2    1    4 1
     3    2    3 1
     4    2    4 1
     5    3    5 1
     6    3    6 1
     7    4    7 1
     8    4    8 1
     9    1    9 1
    10    1   10 1
    11    2   11 1
    12    2   12 1
    13    5   13 1
    14    5   14 1
    15    5   15 1
    16    6   16 1
    17    6   17 1
    18    6   18 1
    19    7   19 1
    20    7   20 1
    21    7   21 1
    22    8   22 1
@<TRIPOS>SUBSTRUCTURE
     1 <0>         1 GROUP 0 A     ****
