@<TRIPOS>MOLECULE
AlkEthOH_r529
   29    29     1     0     0
SMALL
USER_CHARGES

@<TRIPOS>ATOM
      1 C1          0.3034    1.7024   -0.9386 CT        1 <0>       -0.10237
      2 C2         -1.0292   -0.3791   -0.2847 CT        1 <0>       -0.05232
      3 C3          1.1780    1.8095    0.3035 CT        1 <0>        0.13063
      4 C4          0.7641   -0.1315    1.5943 CT        1 <0>        0.10297
      5 C5         -0.1405    0.2825   -1.3721 CT        1 <0>       -0.04156
      6 C6         -0.3661   -0.9649    0.9795 CT        1 <0>        0.13032
      7 C7         -1.0219    0.4595   -2.6360 CT        1 <0>       -0.08615
      8 C8          1.0599   -0.5858   -1.7794 CT        1 <0>       -0.08615
      9 C9         -1.4668   -1.2059    2.0278 CT        1 <0>       -0.12387
     10 O1          0.5509    1.2659    1.4596 OS        1 <0>       -0.40711
     11 O2          0.1680   -2.2526    0.6463 OH        1 <0>       -0.60004
     12 H1         -0.5988    2.3039   -0.7599 HC        1 <0>        0.04662
     13 H2          0.8346    2.1877   -1.7681 HC        1 <0>        0.04662
     14 H3         -1.7826    0.3613    0.0206 HC        1 <0>        0.05421
     15 H4         -1.5925   -1.1949   -0.7617 HC        1 <0>        0.05421
     16 H5          2.1719    1.3762    0.1438 H1        1 <0>        0.04555
     17 H6          1.3424    2.8730    0.5116 H1        1 <0>        0.04555
     18 H7          0.8281   -0.3390    2.6697 H1        1 <0>        0.04978
     19 H8          1.7486   -0.4244    1.2100 H1        1 <0>        0.04978
     20 H9         -1.3505   -0.5156   -2.9672 HC        1 <0>        0.03586
     21 H10        -0.4310    0.9370   -3.4049 HC        1 <0>        0.03586
     22 H11        -1.8728    1.0751   -2.3802 HC        1 <0>        0.03586
     23 H12         0.7086   -1.5695   -2.0755 HC        1 <0>        0.03586
     24 H13         1.7382   -0.6800   -0.9370 HC        1 <0>        0.03586
     25 H14         1.5764   -0.1180   -2.6120 HC        1 <0>        0.03586
     26 H15        -1.0204   -1.6186    2.9263 HC        1 <0>        0.04469
     27 H16        -2.1949   -1.9035    1.6276 HC        1 <0>        0.04469
     28 H17        -1.9518   -0.2636    2.2598 HC        1 <0>        0.04469
     29 H18         0.5750   -2.5917    1.4559 HO        1 <0>        0.39410
@<TRIPOS>BOND
     1    1    3 1
     2    1    5 1
     3    2    5 1
     4    2    6 1
     5    3   10 1
     6    4    6 1
     7    4   10 1
     8    5    7 1
     9    5    8 1
    10    6    9 1
    11    6   11 1
    12    1   12 1
    13    1   13 1
    14    2   14 1
    15    2   15 1
    16    3   16 1
    17    3   17 1
    18    4   18 1
    19    4   19 1
    20    7   20 1
    21    7   21 1
    22    7   22 1
    23    8   23 1
    24    8   24 1
    25    8   25 1
    26    9   26 1
    27    9   27 1
    28    9   28 1
    29   11   29 1
@<TRIPOS>SUBSTRUCTURE
     1 <0>         1 GROUP 0 A     ****
