@<TRIPOS>MOLECULE
AlkEthOH_r245
   27    27     1     0     0
SMALL
USER_CHARGES

@<TRIPOS>ATOM
      1 C1         -1.5958   -0.2493   -0.9772 CT        1 <0>       -0.10314
      2 C2         -0.1432   -0.1950    1.2070 CT        1 <0>       -0.13585
      3 C3         -1.3025    1.2026   -1.3672 CT        1 <0>        0.14377
      4 C4          1.0901    1.1040   -1.2230 CT        1 <0>        0.32410
      5 C5         -1.4657   -0.5735    0.5177 CT        1 <0>        0.16165
      6 C6          1.1663   -0.6304    0.5081 CT        1 <0>        0.17082
      7 C7          2.3770   -0.0533    1.2578 CT        1 <0>       -0.10580
      8 C8          1.2774   -2.1637    0.5268 CT        1 <0>       -0.10580
      9 O1         -0.1126    1.7382   -0.8007 OS        1 <0>       -0.44953
     10 O2          1.2227   -0.2719   -0.8786 OS        1 <0>       -0.45016
     11 O3         -2.5136    0.0920    1.2291 OH        1 <0>       -0.60569
     12 H1         -2.6204   -0.4741   -1.3019 HC        1 <0>        0.06326
     13 H2         -0.9523   -0.9232   -1.5523 HC        1 <0>        0.06326
     14 H3         -0.1346    0.8875    1.3882 HC        1 <0>        0.05836
     15 H4         -0.1620   -0.6156    2.2233 HC        1 <0>        0.05836
     16 H5         -1.2654    1.3034   -2.4581 H1        1 <0>        0.05013
     17 H6         -2.1253    1.8370   -1.0197 H1        1 <0>        0.05013
     18 H7          1.1647    1.1812   -2.3134 H2        1 <0>        0.06050
     19 H8          1.9342    1.6677   -0.8145 H2        1 <0>        0.06050
     20 H9         -1.6355   -1.6484    0.6484 H1        1 <0>        0.02541
     21 H10         3.2903   -0.3643    0.7599 HC        1 <0>        0.04476
     22 H11         2.3763   -0.4208    2.2794 HC        1 <0>        0.04476
     23 H12         2.3152    1.0307    1.2609 HC        1 <0>        0.04476
     24 H13         2.1976   -2.4628    0.0353 HC        1 <0>        0.04476
     25 H14         0.4285   -2.5913    0.0029 HC        1 <0>        0.04476
     26 H15         1.2838   -2.5105    1.5553 HC        1 <0>        0.04476
     27 H16        -2.3956   -0.1375    2.1623 HO        1 <0>        0.39716
@<TRIPOS>BOND
     1    1    3 1
     2    1    5 1
     3    2    5 1
     4    2    6 1
     5    3    9 1
     6    4    9 1
     7    4   10 1
     8    5   11 1
     9    6    7 1
    10    6    8 1
    11    6   10 1
    12    1   12 1
    13    1   13 1
    14    2   14 1
    15    2   15 1
    16    3   16 1
    17    3   17 1
    18    4   18 1
    19    4   19 1
    20    5   20 1
    21    7   21 1
    22    7   22 1
    23    7   23 1
    24    8   24 1
    25    8   25 1
    26    8   26 1
    27   11   27 1
@<TRIPOS>SUBSTRUCTURE
     1 <0>         1 GROUP 0 A     ****
