@<TRIPOS>MOLECULE
AlkEthOH_r567
   24    24     1     0     0
SMALL
USER_CHARGES

@<TRIPOS>ATOM
      1 C1         -0.6713    1.1158    0.5981 CT        1 <0>       -0.09789
      2 C2         -0.6216    0.1500    1.7881 CT        1 <0>        0.13433
      3 C3          1.6507   -0.5407    1.4452 CT        1 <0>        0.09307
      4 C4          2.0844   -0.9251    0.0345 CT        1 <0>        0.10750
      5 C5          0.0524   -0.6112   -1.1820 CT        1 <0>        0.10007
      6 C6         -0.9553    0.4752   -0.7765 CT        1 <0>        0.13938
      7 C7         -0.9834    1.5815   -1.8417 CT        1 <0>       -0.12297
      8 O1          0.2966   -0.9297    1.6554 OS        1 <0>       -0.42191
      9 O2          1.3946   -0.1788   -0.9686 OS        1 <0>       -0.41469
     10 O3         -2.2472   -0.1371   -0.7525 OH        1 <0>       -0.59858
     11 H1         -1.4599    1.8478    0.8190 HC        1 <0>        0.05930
     12 H2          0.2653    1.6832    0.5448 HC        1 <0>        0.05930
     13 H3         -0.3823    0.7022    2.7047 H1        1 <0>        0.05447
     14 H4         -1.6122   -0.2928    1.9388 H1        1 <0>        0.05447
     15 H5          2.2602   -1.0969    2.1652 H1        1 <0>        0.04924
     16 H6          1.8059    0.5262    1.6378 H1        1 <0>        0.04924
     17 H7          3.1500   -0.7023   -0.0812 H1        1 <0>        0.05497
     18 H8          1.9503   -1.9980   -0.1477 H1        1 <0>        0.05497
     19 H9         -0.1663   -1.5651   -0.6855 H1        1 <0>        0.05555
     20 H10        -0.0513   -0.8289   -2.2524 H1        1 <0>        0.05555
     21 H11        -1.1827    1.1407   -2.8138 HC        1 <0>        0.04526
     22 H12        -0.0224    2.0867   -1.8619 HC        1 <0>        0.04526
     23 H13        -1.7646    2.2955   -1.5991 HC        1 <0>        0.04526
     24 H14        -2.3809   -0.5233   -1.6304 HO        1 <0>        0.39885
@<TRIPOS>BOND
     1    1    2 1
     2    1    6 1
     3    2    8 1
     4    3    4 1
     5    3    8 1
     6    4    9 1
     7    5    6 1
     8    5    9 1
     9    6    7 1
    10    6   10 1
    11    1   11 1
    12    1   12 1
    13    2   13 1
    14    2   14 1
    15    3   15 1
    16    3   16 1
    17    4   17 1
    18    4   18 1
    19    5   19 1
    20    5   20 1
    21    7   21 1
    22    7   22 1
    23    7   23 1
    24   10   24 1
@<TRIPOS>SUBSTRUCTURE
     1 <0>         1 GROUP 0 A     ****
