@<TRIPOS>MOLECULE
AlkEthOH_r651
   20    20     1     0     0
SMALL
USER_CHARGES

@<TRIPOS>ATOM
      1 C1          0.9143   -0.2002   -0.5664 CT        1 <0>        0.09028
      2 C2          1.9692    0.8476   -0.2610 CT        1 <0>        0.09613
      3 C3          1.7564   -0.4572   -2.7408 CT        1 <0>        0.10120
      4 C4          2.8531    0.5836   -2.4765 CT        1 <0>        0.11685
      5 C5          4.1548    0.1456   -3.1556 CT        1 <0>       -0.10004
      6 C6          2.4582    1.9706   -3.0041 CT        1 <0>       -0.10004
      7 O1          0.5951   -0.1706   -1.9578 OS        1 <0>       -0.40914
      8 O2          3.1295    0.6384   -1.0668 OS        1 <0>       -0.41408
      9 H1          1.2651   -1.2049   -0.3038 H1        1 <0>        0.05615
     10 H2          0.0001    0.0004   -0.0002 H1        1 <0>        0.05615
     11 H3          1.5876    1.8593   -0.4308 H1        1 <0>        0.05650
     12 H4          2.2719    0.7835    0.7887 H1        1 <0>        0.05650
     13 H5          1.4612   -0.4603   -3.7955 H1        1 <0>        0.05733
     14 H6          2.0972   -1.4694   -2.4889 H1        1 <0>        0.05733
     15 H7          4.9302    0.8840   -2.9673 HC        1 <0>        0.04648
     16 H8          3.9945    0.0566   -4.2272 HC        1 <0>        0.04648
     17 H9          4.4681   -0.8160   -2.7567 HC        1 <0>        0.04648
     18 H10         3.2578    2.6760   -2.7983 HC        1 <0>        0.04648
     19 H11         1.5484    2.2988   -2.5102 HC        1 <0>        0.04648
     20 H12         2.2900    1.9146   -4.0755 HC        1 <0>        0.04648
@<TRIPOS>BOND
     1    1    2 1
     2    1    7 1
     3    2    8 1
     4    3    4 1
     5    3    7 1
     6    4    5 1
     7    4    6 1
     8    4    8 1
     9    1    9 1
    10    1   10 1
    11    2   11 1
    12    2   12 1
    13    3   13 1
    14    3   14 1
    15    5   15 1
    16    5   16 1
    17    5   17 1
    18    6   18 1
    19    6   19 1
    20    6   20 1
@<TRIPOS>SUBSTRUCTURE
     1 <0>         1 GROUP 0 A     ****
