@<TRIPOS>MOLECULE
AlkEthOH_c120
   26    25     1     0     0
SMALL
USER_CHARGES

@<TRIPOS>ATOM
      1 C1          1.8335   -2.2340   -0.1274 CT        1 <0>       -0.12424
      2 C2         -1.3365    1.3405   -2.0815 CT        1 <0>       -0.10856
      3 C3          0.9006    2.4347   -1.7534 CT        1 <0>       -0.10856
      4 C4          0.6575    0.5547   -3.4010 CT        1 <0>       -0.10856
      5 C5          0.9406   -2.1460   -1.3568 CT        1 <0>        0.09253
      6 C6         -0.1384   -1.0643   -1.2249 CT        1 <0>        0.34299
      7 C7          0.1766    1.1276   -2.0686 CT        1 <0>        0.15427
      8 O1          0.3270   -3.4219   -1.5414 OH        1 <0>       -0.61700
      9 O2         -0.9739   -1.4175   -0.1247 OH        1 <0>       -0.60322
     10 O3          0.4943    0.2029   -1.0375 OS        1 <0>       -0.41151
     11 H1          1.2492   -2.4263    0.7789 HC        1 <0>        0.05085
     12 H2          2.4089   -1.3139    0.0121 HC        1 <0>        0.05085
     13 H3          2.5340   -3.0703   -0.2273 HC        1 <0>        0.05085
     14 H4         -1.8598    0.4045   -2.3074 HC        1 <0>        0.04558
     15 H5         -1.6989    1.7182   -1.1199 HC        1 <0>        0.04558
     16 H6         -1.6245    2.0522   -2.8636 HC        1 <0>        0.04558
     17 H7          1.9865    2.2866   -1.7431 HC        1 <0>        0.04558
     18 H8          0.6295    2.8005   -0.7564 HC        1 <0>        0.04558
     19 H9          0.6639    3.2142   -2.4849 HC        1 <0>        0.04558
     20 H10         1.7428    0.4018   -3.3920 HC        1 <0>        0.04558
     21 H11         0.1756   -0.4023   -3.6260 HC        1 <0>        0.04558
     22 H12         0.4501    1.2506   -4.2220 HC        1 <0>        0.04558
     23 H13         1.5547   -1.9534   -2.2440 H1        1 <0>        0.04699
     24 H14        -0.7445   -1.0531   -2.1399 H2        1 <0>        0.05322
     25 H15         1.0483   -4.0569   -1.6660 HO        1 <0>        0.40914
     26 H16        -1.3643   -2.2850   -0.3255 HO        1 <0>        0.41974
@<TRIPOS>BOND
     1    1    5 1
     2    2    7 1
     3    3    7 1
     4    4    7 1
     5    5    6 1
     6    5    8 1
     7    6    9 1
     8    6   10 1
     9    7   10 1
    10    1   11 1
    11    1   12 1
    12    1   13 1
    13    2   14 1
    14    2   15 1
    15    2   16 1
    16    3   17 1
    17    3   18 1
    18    3   19 1
    19    4   20 1
    20    4   21 1
    21    4   22 1
    22    5   23 1
    23    6   24 1
    24    8   25 1
    25    9   26 1
@<TRIPOS>SUBSTRUCTURE
     1 <0>         1 GROUP 0 A     ****
