@<TRIPOS>MOLECULE
AlkEthOH_r1063
   21    21     1     0     0
SMALL
USER_CHARGES

@<TRIPOS>ATOM
      1 C1         -0.0970   -0.3826    1.6866 CT        1 <0>       -0.17807
      2 C2          0.9574   -1.3202    1.1201 CT        1 <0>        0.13600
      3 C3          1.3856   -0.3038   -1.0109 CT        1 <0>        0.09933
      4 C4          0.1830    0.6408   -0.9917 CT        1 <0>        0.11091
      5 C5         -1.2887   -0.1527    0.7521 CT        1 <0>        0.33618
      6 C6         -0.0721    1.1990   -2.3873 CT        1 <0>       -0.09433
      7 O1          1.8718   -0.6020    0.2953 OS        1 <0>       -0.41846
      8 O2         -0.9766   -0.1106   -0.6356 OS        1 <0>       -0.40845
      9 O3         -1.9634    1.0321    1.1714 OH        1 <0>       -0.61916
     10 H1         -0.4844   -0.7820    2.6323 HC        1 <0>        0.06478
     11 H2          0.3656    0.5806    1.9392 HC        1 <0>        0.06478
     12 H3          1.5484   -1.7228    1.9496 H1        1 <0>        0.05428
     13 H4          0.5260   -2.1731    0.5838 H1        1 <0>        0.05428
     14 H5          1.1499   -1.2448   -1.5224 H1        1 <0>        0.05801
     15 H6          2.2191    0.1655   -1.5443 H1        1 <0>        0.05801
     16 H7          0.3344    1.4747   -0.2961 H1        1 <0>        0.06727
     17 H8         -1.9888   -0.9862    0.8818 H2        1 <0>        0.06560
     18 H9         -0.2249    0.3823   -3.0923 HC        1 <0>        0.04743
     19 H10         0.7821    1.7925   -2.7121 HC        1 <0>        0.04743
     20 H11        -0.9600    1.8307   -2.3785 HC        1 <0>        0.04743
     21 H12        -2.2521    0.8759    2.0835 HO        1 <0>        0.40675
@<TRIPOS>BOND
     1    1    2 1
     2    1    5 1
     3    2    7 1
     4    3    4 1
     5    3    7 1
     6    4    6 1
     7    4    8 1
     8    5    8 1
     9    5    9 1
    10    1   10 1
    11    1   11 1
    12    2   12 1
    13    2   13 1
    14    3   14 1
    15    3   15 1
    16    4   16 1
    17    5   17 1
    18    6   18 1
    19    6   19 1
    20    6   20 1
    21    9   21 1
@<TRIPOS>SUBSTRUCTURE
     1 <0>         1 GROUP 0 A     ****
