@<TRIPOS>MOLECULE
AlkEthOH_c536
   29    28     1     0     0
SMALL
USER_CHARGES

@<TRIPOS>ATOM
      1 C1         -2.8535    0.2021   -2.1501 CT        1 <0>       -0.10621
      2 C2         -3.1743   -1.2865   -0.1419 CT        1 <0>       -0.10621
      3 C3         -0.3606    1.7288    2.6165 CT        1 <0>       -0.10621
      4 C4          1.4804    0.0220    2.8388 CT        1 <0>       -0.10621
      5 C5          1.3325   -0.8319   -0.6670 CT        1 <0>       -0.11286
      6 C6         -2.2893   -0.2455   -0.8104 CT        1 <0>        0.15342
      7 C7          0.5852    0.7923    1.8802 CT        1 <0>        0.15342
      8 C8          0.0470   -0.0730   -0.3097 CT        1 <0>        0.53348
      9 O1          0.1415    1.2686   -0.8003 OH        1 <0>       -0.65277
     10 O2         -0.9914   -0.7917   -1.0081 OS        1 <0>       -0.44540
     11 O3         -0.1742   -0.1271    1.1086 OS        1 <0>       -0.44540
     12 H1         -2.9718   -0.6441   -2.8338 HC        1 <0>        0.04243
     13 H2         -3.8294    0.6798   -2.0122 HC        1 <0>        0.04243
     14 H3         -2.2034    0.9465   -2.6231 HC        1 <0>        0.04243
     15 H4         -3.3003   -2.1681   -0.7778 HC        1 <0>        0.04243
     16 H5         -4.1624   -0.8656    0.0727 HC        1 <0>        0.04243
     17 H6         -2.7527   -1.6043    0.8180 HC        1 <0>        0.04243
     18 H7         -0.9948    1.1805    3.3197 HC        1 <0>        0.04243
     19 H8          0.2065    2.4836    3.1718 HC        1 <0>        0.04243
     20 H9         -1.0033    2.2720    1.9150 HC        1 <0>        0.04243
     21 H10         0.8901   -0.5669    3.5474 HC        1 <0>        0.04243
     22 H11         2.1177    0.7118    3.4026 HC        1 <0>        0.04243
     23 H12         2.1511   -0.6528    2.2956 HC        1 <0>        0.04243
     24 H13         1.3105   -1.8672   -0.3124 HC        1 <0>        0.05960
     25 H14         2.2055   -0.3532   -0.2081 HC        1 <0>        0.05960
     26 H15         1.4886   -0.8462   -1.7512 HC        1 <0>        0.05960
     27 H16        -2.1830    0.6218   -0.1506 H1        1 <0>        0.06325
     28 H17         1.2044    1.3699    1.1861 H1        1 <0>        0.06325
     29 H18         0.2538    1.2481   -1.7650 HO        1 <0>        0.42649
@<TRIPOS>BOND
     1    1    6 1
     2    2    6 1
     3    3    7 1
     4    4    7 1
     5    5    8 1
     6    6   10 1
     7    7   11 1
     8    8    9 1
     9    8   10 1
    10    8   11 1
    11    1   12 1
    12    1   13 1
    13    1   14 1
    14    2   15 1
    15    2   16 1
    16    2   17 1
    17    3   18 1
    18    3   19 1
    19    3   20 1
    20    4   21 1
    21    4   22 1
    22    4   23 1
    23    5   24 1
    24    5   25 1
    25    5   26 1
    26    6   27 1
    27    7   28 1
    28    9   29 1
@<TRIPOS>SUBSTRUCTURE
     1 <0>         1 GROUP 0 A     ****
