@<TRIPOS>MOLECULE
AlkEthOH_r530
   27    27     1     0     0
SMALL
USER_CHARGES

@<TRIPOS>ATOM
      1 C1         -0.4504   -1.5577    0.9726 CT        1 <0>       -0.14250
      2 C2          0.2024    0.9050    0.8461 CT        1 <0>       -0.09508
      3 C3         -0.8801   -1.9560   -0.4377 CT        1 <0>        0.12943
      4 C4         -1.3549    0.2861   -1.1258 CT        1 <0>        0.14109
      5 C5          0.7005   -0.5415    1.0700 CT        1 <0>        0.16741
      6 C6         -0.3367    1.2766   -0.5505 CT        1 <0>        0.13573
      7 C7          1.3277   -0.6344    2.4707 CT        1 <0>       -0.12374
      8 C8         -0.9657    2.6742   -0.4870 CT        1 <0>       -0.12518
      9 O1         -0.7231   -0.9519   -1.4246 OS        1 <0>       -0.38623
     10 O2          1.7165   -0.8756    0.1278 OH        1 <0>       -0.57993
     11 O3          0.7638    1.3752   -1.4615 OH        1 <0>       -0.57201
     12 H1         -1.3205   -1.1675    1.5172 HC        1 <0>        0.05095
     13 H2         -0.1804   -2.4867    1.4925 HC        1 <0>        0.05095
     14 H3         -0.5711    1.1213    1.5960 HC        1 <0>        0.05083
     15 H4          1.0426    1.5823    1.0577 HC        1 <0>        0.05083
     16 H5         -0.2738   -2.8078   -0.7663 H1        1 <0>        0.04344
     17 H6         -1.9206   -2.3016   -0.4340 H1        1 <0>        0.04344
     18 H7         -2.2247    0.1527   -0.4711 H1        1 <0>        0.05191
     19 H8         -1.7273    0.6648   -2.0849 H1        1 <0>        0.05191
     20 H9          2.1412    0.0799    2.5479 HC        1 <0>        0.04185
     21 H10         1.7083   -1.6386    2.6277 HC        1 <0>        0.04185
     22 H11         0.5729   -0.4095    3.2176 HC        1 <0>        0.04185
     23 H12        -1.3477    2.9429   -1.4675 HC        1 <0>        0.04154
     24 H13        -0.2132    3.3948   -0.1806 HC        1 <0>        0.04154
     25 H14        -1.7798    2.6711    0.2317 HC        1 <0>        0.04154
     26 H15         2.0230   -1.7667    0.3567 HO        1 <0>        0.40348
     27 H16         1.3417    2.0676   -1.1109 HO        1 <0>        0.40310
@<TRIPOS>BOND
     1    1    3 1
     2    1    5 1
     3    2    5 1
     4    2    6 1
     5    3    9 1
     6    4    6 1
     7    4    9 1
     8    5    7 1
     9    5   10 1
    10    6    8 1
    11    6   11 1
    12    1   12 1
    13    1   13 1
    14    2   14 1
    15    2   15 1
    16    3   16 1
    17    3   17 1
    18    4   18 1
    19    4   19 1
    20    7   20 1
    21    7   21 1
    22    7   22 1
    23    8   23 1
    24    8   24 1
    25    8   25 1
    26   10   26 1
    27   11   27 1
@<TRIPOS>SUBSTRUCTURE
     1 <0>         1 GROUP 0 A     ****
