@<TRIPOS>MOLECULE
AlkEthOH_c919
   24    23     1     0     0
SMALL
USER_CHARGES

@<TRIPOS>ATOM
      1 C1         -0.9448    0.7272   -2.2001 CT        1 <0>       -0.08922
      2 C2          1.8520   -1.1439    0.9254 CT        1 <0>       -0.12976
      3 C3         -1.1490   -1.2764    0.1395 CT        1 <0>       -0.08841
      4 C4         -0.5833    0.6022    1.6871 CT        1 <0>       -0.08841
      5 C5         -0.9741    1.1023   -0.7231 CT        1 <0>       -0.07285
      6 C6          1.1443   -0.1836   -0.0295 CT        1 <0>        0.14520
      7 C7         -0.3713    0.0498    0.2587 CT        1 <0>       -0.03971
      8 O1          1.8360    1.0663    0.0142 OH        1 <0>       -0.60129
      9 H1          0.0720    0.5213   -2.5456 HC        1 <0>        0.03124
     10 H2         -1.5702   -0.1450   -2.4096 HC        1 <0>        0.03124
     11 H3         -1.3304    1.5590   -2.7992 HC        1 <0>        0.03124
     12 H4          1.7753   -0.8090    1.9646 HC        1 <0>        0.04243
     13 H5          2.9240   -1.1736    0.6981 HC        1 <0>        0.04243
     14 H6          1.4664   -2.1634    0.8467 HC        1 <0>        0.04243
     15 H7         -1.0381   -1.7203   -0.8552 HC        1 <0>        0.03702
     16 H8         -0.8027   -2.0154    0.8697 HC        1 <0>        0.03702
     17 H9         -2.2189   -1.1238    0.3212 HC        1 <0>        0.03702
     18 H10        -0.0522    1.5489    1.8342 HC        1 <0>        0.03702
     19 H11        -1.6464    0.7861    1.8828 HC        1 <0>        0.03702
     20 H12        -0.2362   -0.1012    2.4510 HC        1 <0>        0.03702
     21 H13        -2.0197    1.2940   -0.4471 HC        1 <0>        0.04707
     22 H14        -0.4538    2.0612   -0.6036 HC        1 <0>        0.04707
     23 H15         1.2618   -0.5800   -1.0447 H1        1 <0>        0.03115
     24 H16         2.7447    0.8845   -0.2676 HO        1 <0>        0.39603
@<TRIPOS>BOND
     1    1    5 1
     2    2    6 1
     3    3    7 1
     4    4    7 1
     5    5    7 1
     6    6    7 1
     7    6    8 1
     8    1    9 1
     9    1   10 1
    10    1   11 1
    11    2   12 1
    12    2   13 1
    13    2   14 1
    14    3   15 1
    15    3   16 1
    16    3   17 1
    17    4   18 1
    18    4   19 1
    19    4   20 1
    20    5   21 1
    21    5   22 1
    22    6   23 1
    23    8   24 1
@<TRIPOS>SUBSTRUCTURE
     1 <0>         1 GROUP 0 A     ****
