@<TRIPOS>MOLECULE
AlkEthOH_c1290
   20    19     1     0     0
SMALL
USER_CHARGES

@<TRIPOS>ATOM
      1 C1         -3.9221    2.6363   -1.6649 CT        1 <0>        0.11535
      2 C2         -0.8197   -0.3184    0.6555 CT        1 <0>       -0.11714
      3 C3         -0.4755   -1.7525    1.0493 CT        1 <0>        0.13506
      4 C4         -2.4180    1.2380   -0.5224 CT        1 <0>        0.09418
      5 C5         -2.1524   -0.2028   -0.0930 CT        1 <0>        0.13997
      6 O1          0.7756   -1.7823    1.7209 OH        1 <0>       -0.60595
      7 O2         -2.0968   -1.0245   -1.2589 OH        1 <0>       -0.58353
      8 O3         -3.6622    1.3161   -1.2103 OS        1 <0>       -0.41266
      9 H1         -4.8818    2.6604   -2.1869 H1        1 <0>        0.03510
     10 H2         -3.1215    2.9553   -2.3370 H1        1 <0>        0.03510
     11 H3         -3.9613    3.3075   -0.8037 H1        1 <0>        0.03510
     12 H4         -0.8670    0.2982    1.5613 HC        1 <0>        0.05770
     13 H5         -0.0085    0.0660    0.0253 HC        1 <0>        0.05770
     14 H6         -1.2394   -2.1810    1.7055 H1        1 <0>        0.03111
     15 H7         -0.3985   -2.3758    0.1527 H1        1 <0>        0.03111
     16 H8         -2.4633    1.9131    0.3379 H1        1 <0>        0.03129
     17 H9         -1.6438    1.5932   -1.2100 H1        1 <0>        0.03129
     18 H10        -2.9781   -0.5705    0.5267 H1        1 <0>        0.08960
     19 H11         0.9498   -2.7099    1.9498 HO        1 <0>        0.40169
     20 H12        -1.3619   -0.6901   -1.7949 HO        1 <0>        0.39793
@<TRIPOS>BOND
     1    1    8 1
     2    2    3 1
     3    2    5 1
     4    3    6 1
     5    4    5 1
     6    4    8 1
     7    5    7 1
     8    1    9 1
     9    1   10 1
    10    1   11 1
    11    2   12 1
    12    2   13 1
    13    3   14 1
    14    3   15 1
    15    4   16 1
    16    4   17 1
    17    5   18 1
    18    6   19 1
    19    7   20 1
@<TRIPOS>SUBSTRUCTURE
     1 <0>         1 GROUP 0 A     ****
