@<TRIPOS>MOLECULE
AlkEthOH_r583
   27    27     1     0     0
SMALL
USER_CHARGES

@<TRIPOS>ATOM
      1 C1         -0.8977    1.0675   -0.9687 CT        1 <0>       -0.09875
      2 C2         -1.4605   -0.2282   -1.5450 CT        1 <0>        0.14157
      3 C3         -0.0207   -1.9869   -0.8501 CT        1 <0>        0.35090
      4 C4         -0.2863    0.9726    0.4631 CT        1 <0>       -0.04106
      5 C5          0.7724   -0.1860    0.5756 CT        1 <0>        0.36281
      6 C6         -1.4419    0.7824    1.4746 CT        1 <0>       -0.08927
      7 C7          0.3643    2.3478    0.7510 CT        1 <0>       -0.08927
      8 C8          1.4703   -0.2341    1.9443 CT        1 <0>       -0.12051
      9 O1         -0.3889   -1.0930   -1.8919 OS        1 <0>       -0.43862
     10 O2          0.0985   -1.4488    0.4612 OS        1 <0>       -0.49981
     11 O3          1.7906    0.0065   -0.4141 OH        1 <0>       -0.59903
     12 H1         -0.1255    1.4380   -1.6567 HC        1 <0>        0.05756
     13 H2         -1.6981    1.8192   -0.9690 HC        1 <0>        0.05756
     14 H3         -2.1846   -0.7187   -0.8857 H1        1 <0>        0.04824
     15 H4         -1.9850    0.0085   -2.4771 H1        1 <0>        0.04824
     16 H5         -0.7594   -2.7946   -0.8095 H2        1 <0>        0.05283
     17 H6          0.9341   -2.4471   -1.1256 H2        1 <0>        0.05283
     18 H7         -1.0258    0.7157    2.4712 HC        1 <0>        0.03981
     19 H8         -1.9724   -0.1286    1.2309 HC        1 <0>        0.03981
     20 H9         -2.1091    1.6316    1.4058 HC        1 <0>        0.03981
     21 H10         0.8028    2.3253    1.7397 HC        1 <0>        0.03981
     22 H11        -0.3998    3.1119    0.6993 HC        1 <0>        0.03981
     23 H12         1.1285    2.5336    0.0081 HC        1 <0>        0.03981
     24 H13         2.1844   -1.0516    1.9549 HC        1 <0>        0.05279
     25 H14         0.7279   -0.3888    2.7208 HC        1 <0>        0.05279
     26 H15         1.9881    0.7043    2.1167 HC        1 <0>        0.05279
     27 H16         2.4132   -0.7262   -0.3048 HO        1 <0>        0.40655
@<TRIPOS>BOND
     1    1    2 1
     2    1    4 1
     3    2    9 1
     4    3    9 1
     5    3   10 1
     6    4    5 1
     7    4    6 1
     8    4    7 1
     9    5    8 1
    10    5   10 1
    11    5   11 1
    12    1   12 1
    13    1   13 1
    14    2   14 1
    15    2   15 1
    16    3   16 1
    17    3   17 1
    18    6   18 1
    19    6   19 1
    20    6   20 1
    21    7   21 1
    22    7   22 1
    23    7   23 1
    24    8   24 1
    25    8   25 1
    26    8   26 1
    27   11   27 1
@<TRIPOS>SUBSTRUCTURE
     1 <0>         1 GROUP 0 A     ****
