@<TRIPOS>MOLECULE
AlkEthOH_c1066
   26    25     1     0     0
SMALL
USER_CHARGES

@<TRIPOS>ATOM
      1 C1         -0.3392    1.6492    3.1894 CT        1 <0>       -0.09310
      2 C2          0.0458    1.1039   -2.9647 CT        1 <0>       -0.12462
      3 C3         -0.0392   -2.2211    0.0019 CT        1 <0>       -0.13917
      4 C4          0.1678    1.2190    1.8210 CT        1 <0>       -0.07908
      5 C5         -0.1833   -0.2473    1.5313 CT        1 <0>       -0.09680
      6 C6          0.0729   -0.2040   -2.1866 CT        1 <0>        0.33545
      7 C7          0.3449   -0.7469    0.1688 CT        1 <0>        0.35494
      8 O1         -0.8447   -1.1215   -2.7737 OH        1 <0>       -0.62411
      9 O2          1.7682   -0.6201    0.1994 OH        1 <0>       -0.62867
     10 O3         -0.2545    0.0892   -0.8295 OS        1 <0>       -0.44937
     11 H1         -1.4237    1.5148    3.2508 HC        1 <0>        0.03236
     12 H2         -0.1166    2.7046    3.3764 HC        1 <0>        0.03236
     13 H3          0.1225    1.0540    3.9836 HC        1 <0>        0.03236
     14 H4         -0.9441    1.5681   -2.9174 HC        1 <0>        0.05323
     15 H5          0.3196    0.9396   -4.0118 HC        1 <0>        0.05323
     16 H6          0.7655    1.8182   -2.5489 HC        1 <0>        0.05323
     17 H7          0.3164   -2.6194   -0.9544 HC        1 <0>        0.05361
     18 H8         -1.1252   -2.3560    0.0349 HC        1 <0>        0.05361
     19 H9          0.4233   -2.8389    0.7796 HC        1 <0>        0.05361
     20 H10         1.2534    1.3627    1.7843 HC        1 <0>        0.05130
     21 H11        -0.2728    1.8722    1.0596 HC        1 <0>        0.05130
     22 H12        -1.2755   -0.3540    1.5597 HC        1 <0>        0.05224
     23 H13         0.2338   -0.8668    2.3357 HC        1 <0>        0.05224
     24 H14         1.0773   -0.6337   -2.2594 H2        1 <0>        0.10047
     25 H15        -0.5760   -1.2755   -3.6949 HO        1 <0>        0.40534
     26 H16         2.1071   -1.1364    0.9497 HO        1 <0>        0.41404
@<TRIPOS>BOND
     1    1    4 1
     2    2    6 1
     3    3    7 1
     4    4    5 1
     5    5    7 1
     6    6    8 1
     7    6   10 1
     8    7    9 1
     9    7   10 1
    10    1   11 1
    11    1   12 1
    12    1   13 1
    13    2   14 1
    14    2   15 1
    15    2   16 1
    16    3   17 1
    17    3   18 1
    18    3   19 1
    19    4   20 1
    20    4   21 1
    21    5   22 1
    22    5   23 1
    23    6   24 1
    24    8   25 1
    25    9   26 1
@<TRIPOS>SUBSTRUCTURE
     1 <0>         1 GROUP 0 A     ****
