@<TRIPOS>MOLECULE
AlkEthOH_c1264
   20    19     1     0     0
SMALL
USER_CHARGES

@<TRIPOS>ATOM
      1 C1          2.1967    0.8494    2.2880 CT        1 <0>       -0.09783
      2 C2          0.1577   -2.4541   -2.1027 CT        1 <0>       -0.09783
      3 C3          0.8529    0.3292    1.8239 CT        1 <0>        0.14347
      4 C4          0.2053   -1.0247   -1.6065 CT        1 <0>        0.14347
      5 C5         -0.7045    0.4396    0.0379 CT        1 <0>        0.52579
      6 O1         -1.2239    1.3858   -0.8989 OH        1 <0>       -0.62000
      7 O2          0.5565    0.8844    0.5492 OS        1 <0>       -0.47303
      8 O3         -0.6809   -0.8878   -0.5033 OS        1 <0>       -0.47303
      9 H1          2.9882    0.5628    1.5900 HC        1 <0>        0.04475
     10 H2          2.1793    1.9408    2.3742 HC        1 <0>        0.04475
     11 H3          2.4410    0.4556    3.2802 HC        1 <0>        0.04475
     12 H4          0.4672   -3.1501   -1.3180 HC        1 <0>        0.04475
     13 H5         -0.8542   -2.7161   -2.4287 HC        1 <0>        0.04475
     14 H6          0.8148   -2.5838   -2.9691 HC        1 <0>        0.04475
     15 H7          0.0657    0.6192    2.5263 H1        1 <0>        0.03827
     16 H8          0.8722   -0.7613    1.7376 H1        1 <0>        0.03827
     17 H9         -0.1053   -0.3339   -2.3960 H1        1 <0>        0.03827
     18 H10         1.2168   -0.7649   -1.2804 H1        1 <0>        0.03827
     19 H11        -1.4167    0.4133    0.8716 H3        1 <0>        0.08939
     20 H12        -1.3348    2.2314   -0.4322 HO        1 <0>        0.43802
@<TRIPOS>BOND
     1    1    3 1
     2    2    4 1
     3    3    7 1
     4    4    8 1
     5    5    6 1
     6    5    7 1
     7    5    8 1
     8    1    9 1
     9    1   10 1
    10    1   11 1
    11    2   12 1
    12    2   13 1
    13    2   14 1
    14    3   15 1
    15    3   16 1
    16    4   17 1
    17    4   18 1
    18    5   19 1
    19    6   20 1
@<TRIPOS>SUBSTRUCTURE
     1 <0>         1 GROUP 0 A     ****
