@<TRIPOS>MOLECULE
AlkEthOH_r1034
   17    17     1     0     0
SMALL
USER_CHARGES

@<TRIPOS>ATOM
      1 C1          0.8957   -0.3223   -0.5409 CT        1 <0>       -0.14545
      2 C2          0.7237   -0.1089   -2.0401 CT        1 <0>        0.12855
      3 C3          2.1006   -1.9720   -2.4283 CT        1 <0>        0.31886
      4 C4          1.2145   -1.7917   -0.2550 CT        1 <0>        0.14051
      5 C5          1.5532   -2.0135    1.2115 CT        1 <0>       -0.09029
      6 O1          1.8693   -0.5983   -2.7363 OS        1 <0>       -0.43741
      7 O2          2.3412   -2.1955   -1.0396 OS        1 <0>       -0.43585
      8 H1          1.7382    0.2958   -0.2047 HC        1 <0>        0.06171
      9 H2          0.0001    0.0002    0.0001 HC        1 <0>        0.06171
     10 H3         -0.1722   -0.6179   -2.4142 H1        1 <0>        0.05042
     11 H4          0.6203    0.9576   -2.2631 H1        1 <0>        0.05042
     12 H5          1.2635   -2.5896   -2.7772 H2        1 <0>        0.06004
     13 H6          2.9950   -2.2871   -2.9736 H2        1 <0>        0.06004
     14 H7          0.3582   -2.4247   -0.5203 H1        1 <0>        0.03493
     15 H8          2.4034   -1.3930    1.4981 HC        1 <0>        0.04727
     16 H9          1.8077   -3.0601    1.3835 HC        1 <0>        0.04727
     17 H10         0.6992   -1.7513    1.8375 HC        1 <0>        0.04727
@<TRIPOS>BOND
     1    1    2 1
     2    1    4 1
     3    2    6 1
     4    3    6 1
     5    3    7 1
     6    4    5 1
     7    4    7 1
     8    1    8 1
     9    1    9 1
    10    2   10 1
    11    2   11 1
    12    3   12 1
    13    3   13 1
    14    4   14 1
    15    5   15 1
    16    5   16 1
    17    5   17 1
@<TRIPOS>SUBSTRUCTURE
     1 <0>         1 GROUP 0 A     ****
