@<TRIPOS>MOLECULE
AlkEthOH_r1103
   21    21     1     0     0
SMALL
USER_CHARGES

@<TRIPOS>ATOM
      1 C1         -1.3775    0.1118   -1.6695 CT        1 <0>        0.09609
      2 C2         -0.4669   -1.0752   -1.3996 CT        1 <0>        0.10082
      3 C3         -0.6973    1.3949    0.2412 CT        1 <0>        0.12941
      4 C4          0.0761    0.3487    1.0491 CT        1 <0>       -0.11757
      5 C5          1.1691   -0.3632    0.2221 CT        1 <0>        0.33385
      6 C6          0.7040    0.9824    2.2961 CT        1 <0>       -0.08844
      7 O1         -1.7684    0.7826   -0.4767 OS        1 <0>       -0.41643
      8 O2          0.8482   -0.5996   -1.1452 OS        1 <0>       -0.45884
      9 O3          1.5126   -1.5824    0.8826 OH        1 <0>       -0.62312
     10 H1         -0.9072    0.8330   -2.3479 H1        1 <0>        0.05731
     11 H2         -2.2987   -0.2431   -2.1426 H1        1 <0>        0.05731
     12 H3         -0.8285   -1.7124   -0.5854 H1        1 <0>        0.06233
     13 H4         -0.4074   -1.6864   -2.3059 H1        1 <0>        0.06233
     14 H5         -1.1707    2.1123    0.9205 H1        1 <0>        0.05513
     15 H6         -0.0513    1.9691   -0.4337 H1        1 <0>        0.05513
     16 H7         -0.6358   -0.4093    1.4046 HC        1 <0>        0.08810
     17 H8          2.0713    0.2600    0.2120 H2        1 <0>        0.06387
     18 H9          1.4197    1.7431    1.9956 HC        1 <0>        0.04251
     19 H10         1.2127    0.2166    2.8755 HC        1 <0>        0.04251
     20 H11        -0.0741    1.4378    2.9029 HC        1 <0>        0.04251
     21 H12         2.1972   -2.0027    0.3409 HO        1 <0>        0.41519
@<TRIPOS>BOND
     1    1    2 1
     2    1    7 1
     3    2    8 1
     4    3    4 1
     5    3    7 1
     6    4    5 1
     7    4    6 1
     8    5    8 1
     9    5    9 1
    10    1   10 1
    11    1   11 1
    12    2   12 1
    13    2   13 1
    14    3   14 1
    15    3   15 1
    16    4   16 1
    17    5   17 1
    18    6   18 1
    19    6   19 1
    20    6   20 1
    21    9   21 1
@<TRIPOS>SUBSTRUCTURE
     1 <0>         1 GROUP 0 A     ****
