@<TRIPOS>MOLECULE
AlkEthOH_c304
   22    21     1     0     0
SMALL
USER_CHARGES

@<TRIPOS>ATOM
      1 C1         -1.4330   -0.9539    1.4632 CT        1 <0>       -0.08785
      2 C2         -1.7590    1.1605    0.1780 CT        1 <0>       -0.08785
      3 C3          0.4836    0.2994   -1.7145 CT        1 <0>       -0.14850
      4 C4          2.4533    0.3984    0.4727 CT        1 <0>        0.12370
      5 C5         -1.2049   -0.2673    0.1065 CT        1 <0>       -0.07229
      6 C6          0.2917   -0.3253   -0.3250 CT        1 <0>        0.34382
      7 O1          0.6417   -1.7139   -0.3895 OH        1 <0>       -0.62149
      8 O2          1.0484    0.3715    0.6765 OS        1 <0>       -0.41079
      9 H1         -0.8738   -0.4553    2.2613 HC        1 <0>        0.04134
     10 H2         -1.0930   -1.9949    1.4298 HC        1 <0>        0.04134
     11 H3         -2.4926   -0.9576    1.7400 HC        1 <0>        0.04134
     12 H4         -1.2075    1.7719    0.8995 HC        1 <0>        0.04134
     13 H5         -2.8112    1.1517    0.4833 HC        1 <0>        0.04134
     14 H6         -1.7136    1.6554   -0.7966 HC        1 <0>        0.04134
     15 H7          1.5342    0.2619   -2.0241 HC        1 <0>        0.05063
     16 H8         -0.0779   -0.2537   -2.4752 HC        1 <0>        0.05063
     17 H9          0.1827    1.3514   -1.7335 HC        1 <0>        0.05063
     18 H10         2.9299    0.9499    1.2869 H1        1 <0>        0.03787
     19 H11         2.6744    0.8774   -0.4845 H1        1 <0>        0.03787
     20 H12         2.8304   -0.6270    0.4605 H1        1 <0>        0.03787
     21 H13        -1.7973   -0.8266   -0.6306 HC        1 <0>        0.03893
     22 H14         0.0621   -2.1490   -1.0366 HO        1 <0>        0.40878
@<TRIPOS>BOND
     1    1    5 1
     2    2    5 1
     3    3    6 1
     4    4    8 1
     5    5    6 1
     6    6    7 1
     7    6    8 1
     8    1    9 1
     9    1   10 1
    10    1   11 1
    11    2   12 1
    12    2   13 1
    13    2   14 1
    14    3   15 1
    15    3   16 1
    16    3   17 1
    17    4   18 1
    18    4   19 1
    19    4   20 1
    20    5   21 1
    21    7   22 1
@<TRIPOS>SUBSTRUCTURE
     1 <0>         1 GROUP 0 A     ****
