@<TRIPOS>MOLECULE
AlkEthOH_r323
   21    21     1     0     0
SMALL
USER_CHARGES

@<TRIPOS>ATOM
      1 C1         -0.8690   -0.4039    0.5296 CT        1 <0>       -0.08004
      2 C2         -0.8711   -1.9325    0.5305 CT        1 <0>       -0.08004
      3 C3         -0.8697    0.0229    1.9957 CT        1 <0>       -0.07386
      4 C4         -0.8712   -2.3571    1.9972 CT        1 <0>       -0.07386
      5 C5         -1.4712   -1.1662    2.7573 CT        1 <0>       -0.06004
      6 C6         -1.0483   -1.1656    4.2277 CT        1 <0>       -0.08213
      7 C7         -3.0062   -1.1652    2.6715 CT        1 <0>       -0.08213
      8 H1          0.0003   -0.0005    0.0002 HC        1 <0>        0.03977
      9 H2         -1.7638   -0.0293    0.0194 HC        1 <0>        0.03977
     10 H3         -1.7677   -2.3053    0.0221 HC        1 <0>        0.03977
     11 H4         -0.0045   -2.3396   -0.0004 HC        1 <0>        0.03977
     12 H5          0.1650    0.2023    2.3150 HC        1 <0>        0.04254
     13 H6         -1.4251    0.9544    2.1477 HC        1 <0>        0.04254
     14 H7         -1.4272   -3.2878    2.1513 HC        1 <0>        0.04254
     15 H8          0.1637   -2.5361    2.3158 HC        1 <0>        0.04254
     16 H9         -1.4909   -2.0192    4.7365 HC        1 <0>        0.03381
     17 H10        -1.3858   -0.2485    4.7055 HC        1 <0>        0.03381
     18 H11         0.0355   -1.2288    4.2972 HC        1 <0>        0.03381
     19 H12        -3.3969   -2.0170    3.2192 HC        1 <0>        0.03381
     20 H13        -3.3076   -1.2316    1.6310 HC        1 <0>        0.03381
     21 H14        -3.3893   -0.2465    3.1043 HC        1 <0>        0.03381
@<TRIPOS>BOND
     1    1    2 1
     2    1    3 1
     3    2    4 1
     4    3    5 1
     5    4    5 1
     6    5    6 1
     7    5    7 1
     8    1    8 1
     9    1    9 1
    10    2   10 1
    11    2   11 1
    12    3   12 1
    13    3   13 1
    14    4   14 1
    15    4   15 1
    16    6   16 1
    17    6   17 1
    18    6   18 1
    19    7   19 1
    20    7   20 1
    21    7   21 1
@<TRIPOS>SUBSTRUCTURE
     1 <0>         1 GROUP 0 A     ****
