@<TRIPOS>MOLECULE
AlkEthOH_r1041
   24    24     1     0     0
SMALL
USER_CHARGES

@<TRIPOS>ATOM
      1 C1          1.3730    0.3277    1.3667 CT        1 <0>       -0.11351
      2 C2          1.2566   -1.1748    1.1072 CT        1 <0>        0.14023
      3 C3         -0.1685   -1.9098   -0.6535 CT        1 <0>        0.33168
      4 C4          0.1158    1.1182    0.9762 CT        1 <0>        0.14929
      5 C5         -1.2456    0.2522   -0.7893 CT        1 <0>        0.34143
      6 C6          0.2950    2.5979    1.2976 CT        1 <0>       -0.10495
      7 C7         -1.3948    0.2776   -2.3054 CT        1 <0>       -0.11760
      8 O1          1.1211   -1.4214   -0.2903 OS        1 <0>       -0.43537
      9 O2         -1.2647   -1.0814   -0.2731 OS        1 <0>       -0.48411
     10 O3         -0.0879    1.0139   -0.4361 OS        1 <0>       -0.43295
     11 H1          1.5962    0.4880    2.4277 HC        1 <0>        0.05648
     12 H2          2.2215    0.7071    0.7826 HC        1 <0>        0.05648
     13 H3          2.1836   -1.6607    1.4300 H1        1 <0>        0.04302
     14 H4          0.4380   -1.6158    1.6886 H1        1 <0>        0.04302
     15 H5         -0.1826   -2.0768   -1.7349 H2        1 <0>        0.06054
     16 H6         -0.3151   -2.8902   -0.1863 H2        1 <0>        0.06054
     17 H7         -0.7503    0.7440    1.5367 H1        1 <0>        0.04872
     18 H8         -2.1217    0.7585   -0.3677 H2        1 <0>        0.06387
     19 H9          1.1506    2.9956    0.7526 HC        1 <0>        0.04246
     20 H10         0.4634    2.7283    2.3661 HC        1 <0>        0.04246
     21 H11        -0.5980    3.1516    1.0089 HC        1 <0>        0.04246
     22 H12        -0.5429   -0.2169   -2.7722 HC        1 <0>        0.05527
     23 H13        -1.4424    1.3080   -2.6580 HC        1 <0>        0.05527
     24 H14        -2.3085   -0.2394   -2.5988 HC        1 <0>        0.05527
@<TRIPOS>BOND
     1    1    2 1
     2    1    4 1
     3    2    8 1
     4    3    8 1
     5    3    9 1
     6    4    6 1
     7    4   10 1
     8    5    7 1
     9    5    9 1
    10    5   10 1
    11    1   11 1
    12    1   12 1
    13    2   13 1
    14    2   14 1
    15    3   15 1
    16    3   16 1
    17    4   17 1
    18    5   18 1
    19    6   19 1
    20    6   20 1
    21    6   21 1
    22    7   22 1
    23    7   23 1
    24    7   24 1
@<TRIPOS>SUBSTRUCTURE
     1 <0>         1 GROUP 0 A     ****
