@<TRIPOS>MOLECULE
AlkEthOH_c731
   27    26     1     0     0
SMALL
USER_CHARGES

@<TRIPOS>ATOM
      1 C1         -0.1798   -0.0040   -1.8641 CT        1 <0>       -0.09247
      2 C2          0.7156   -0.9472    1.8662 CT        1 <0>       -0.08837
      3 C3         -1.3728   -1.5057    0.6109 CT        1 <0>       -0.08837
      4 C4          0.8437   -2.3452   -0.1808 CT        1 <0>       -0.08837
      5 C5         -0.2819    1.4316    0.2178 CT        1 <0>       -0.08381
      6 C6          0.1174    2.7305   -0.4791 CT        1 <0>        0.13173
      7 C7          0.3267    0.1573   -0.4197 CT        1 <0>       -0.04969
      8 C8          0.1152   -1.1395    0.4553 CT        1 <0>       -0.04808
      9 O1         -0.4848    3.8203    0.2095 OH        1 <0>       -0.60530
     10 H1         -1.2607   -0.1722   -1.8952 HC        1 <0>        0.03469
     11 H2          0.0347    0.8897   -2.4584 HC        1 <0>        0.03469
     12 H3          0.3126   -0.8304   -2.3828 HC        1 <0>        0.03469
     13 H4          1.7776   -0.6842    1.8103 HC        1 <0>        0.03474
     14 H5          0.6334   -1.8654    2.4600 HC        1 <0>        0.03474
     15 H6          0.1977   -0.1656    2.4306 HC        1 <0>        0.03474
     16 H7         -1.8570   -1.6557   -0.3593 HC        1 <0>        0.03474
     17 H8         -1.4881   -2.4381    1.1764 HC        1 <0>        0.03474
     18 H9         -1.9275   -0.7318    1.1506 HC        1 <0>        0.03474
     19 H10         0.4691   -2.5446   -1.1909 HC        1 <0>        0.03474
     20 H11         0.7271   -3.2566    0.4137 HC        1 <0>        0.03474
     21 H12         1.9219   -2.1604   -0.2588 HC        1 <0>        0.03474
     22 H13        -1.3766    1.3686    0.2359 HC        1 <0>        0.05738
     23 H14         0.0262    1.5194    1.2649 HC        1 <0>        0.05738
     24 H15         1.2031    2.8666   -0.4597 H1        1 <0>        0.02060
     25 H16        -0.2325    2.7560   -1.5145 H1        1 <0>        0.02060
     26 H17         1.4121    0.3206   -0.4858 HC        1 <0>        0.04242
     27 H18        -0.2133    4.6277   -0.2553 HO        1 <0>        0.39762
@<TRIPOS>BOND
     1    1    7 1
     2    2    8 1
     3    3    8 1
     4    4    8 1
     5    5    6 1
     6    5    7 1
     7    6    9 1
     8    7    8 1
     9    1   10 1
    10    1   11 1
    11    1   12 1
    12    2   13 1
    13    2   14 1
    14    2   15 1
    15    3   16 1
    16    3   17 1
    17    3   18 1
    18    4   19 1
    19    4   20 1
    20    4   21 1
    21    5   22 1
    22    5   23 1
    23    6   24 1
    24    6   25 1
    25    7   26 1
    26    9   27 1
@<TRIPOS>SUBSTRUCTURE
     1 <0>         1 GROUP 0 A     ****
