@<TRIPOS>MOLECULE
AlkEthOH_r599
   19    19     1     0     0
SMALL
USER_CHARGES

@<TRIPOS>ATOM
      1 C1          0.1509   -1.2483    0.7939 CT        1 <0>        0.11927
      2 C2         -0.2739   -0.9336   -0.6246 CT        1 <0>        0.32932
      3 C3          0.2876    0.9959    0.4262 CT        1 <0>        0.52664
      4 C4          0.2347   -1.9467   -1.6359 CT        1 <0>       -0.10471
      5 C5          1.6414    1.6623    0.6474 CT        1 <0>       -0.10417
      6 O1          0.0877    0.0175    1.4596 OS        1 <0>       -0.46819
      7 O2          0.3205    0.3450   -0.8547 OS        1 <0>       -0.44982
      8 O3         -1.6971   -0.8638   -0.6766 OH        1 <0>       -0.61456
      9 O4         -0.7521    1.9719    0.4648 OH        1 <0>       -0.60953
     10 H1         -0.5030   -1.9606    1.3046 H1        1 <0>        0.07249
     11 H2          1.1889   -1.5940    0.8516 H1        1 <0>        0.07249
     12 H3         -0.0970   -1.6765   -2.6402 HC        1 <0>        0.05798
     13 H4         -0.1457   -2.9416   -1.3974 HC        1 <0>        0.05798
     14 H5          1.3259   -1.9767   -1.6238 HC        1 <0>        0.05798
     15 H6          1.8214    2.4121   -0.1243 HC        1 <0>        0.06268
     16 H7          2.4375    0.9175    0.6063 HC        1 <0>        0.06268
     17 H8          1.6652    2.1492    1.6233 HC        1 <0>        0.06268
     18 H9         -1.9297   -0.6616   -1.5959 HO        1 <0>        0.43947
     19 H10        -0.7143    2.3836    1.3425 HO        1 <0>        0.42932
@<TRIPOS>BOND
     1    1    2 1
     2    1    6 1
     3    2    4 1
     4    2    7 1
     5    2    8 1
     6    3    5 1
     7    3    6 1
     8    3    7 1
     9    3    9 1
    10    1   10 1
    11    1   11 1
    12    4   12 1
    13    4   13 1
    14    4   14 1
    15    5   15 1
    16    5   16 1
    17    5   17 1
    18    8   18 1
    19    9   19 1
@<TRIPOS>SUBSTRUCTURE
     1 <0>         1 GROUP 0 A     ****
