@<TRIPOS>MOLECULE
AlkEthOH_c981
   25    24     1     0     0
SMALL
USER_CHARGES

@<TRIPOS>ATOM
      1 C1          2.0622   -2.0957    0.7830 CT        1 <0>       -0.08644
      2 C2          1.1983   -1.0143   -2.8437 CT        1 <0>       -0.10983
      3 C3         -1.3790    0.8228   -1.0040 CT        1 <0>       -0.12959
      4 C4          0.0718    1.5721    0.8847 CT        1 <0>       -0.12959
      5 C5          2.1912   -1.9551   -0.7281 CT        1 <0>       -0.08309
      6 C6          1.0255   -1.1748   -1.3393 CT        1 <0>        0.15061
      7 C7         -0.2547    0.4084   -0.0521 CT        1 <0>        0.35069
      8 O1         -0.6836   -0.6692    0.7808 OH        1 <0>       -0.62537
      9 O2          0.9647    0.1133   -0.7445 OS        1 <0>       -0.42210
     10 H1          2.0053   -1.1137    1.2634 HC        1 <0>        0.03642
     11 H2          2.9125   -2.6385    1.2074 HC        1 <0>        0.03642
     12 H3          1.1514   -2.6488    1.0337 HC        1 <0>        0.03642
     13 H4          2.1378   -0.5013   -3.0779 HC        1 <0>        0.03987
     14 H5          1.1906   -1.9837   -3.3510 HC        1 <0>        0.03987
     15 H6          0.3926   -0.3990   -3.2585 HC        1 <0>        0.03987
     16 H7         -1.6357    0.0075   -1.6893 HC        1 <0>        0.05024
     17 H8         -2.2753    1.1257   -0.4530 HC        1 <0>        0.05024
     18 H9         -1.0766    1.6675   -1.6322 HC        1 <0>        0.05024
     19 H10         0.8767    1.2933    1.5754 HC        1 <0>        0.05024
     20 H11        -0.7939    1.8506    1.4954 HC        1 <0>        0.05024
     21 H12         0.4151    2.4500    0.3268 HC        1 <0>        0.05024
     22 H13         2.2454   -2.9548   -1.1745 HC        1 <0>        0.04096
     23 H14         3.1368   -1.4432   -0.9439 HC        1 <0>        0.04096
     24 H15         0.0808   -1.6894   -1.1299 H1        1 <0>        0.06178
     25 H16        -1.4531   -0.3701    1.2936 HO        1 <0>        0.41070
@<TRIPOS>BOND
     1    1    5 1
     2    2    6 1
     3    3    7 1
     4    4    7 1
     5    5    6 1
     6    6    9 1
     7    7    8 1
     8    7    9 1
     9    1   10 1
    10    1   11 1
    11    1   12 1
    12    2   13 1
    13    2   14 1
    14    2   15 1
    15    3   16 1
    16    3   17 1
    17    3   18 1
    18    4   19 1
    19    4   20 1
    20    4   21 1
    21    5   22 1
    22    5   23 1
    23    6   24 1
    24    8   25 1
@<TRIPOS>SUBSTRUCTURE
     1 <0>         1 GROUP 0 A     ****
