@<TRIPOS>MOLECULE
AlkEthOH_r706
   29    29     1     0     0
SMALL
USER_CHARGES

@<TRIPOS>ATOM
      1 C1         -2.0883   -1.7754    0.5963 CT        1 <0>       -0.08428
      2 C2         -1.4791   -1.3629    1.9485 CT        1 <0>       -0.08415
      3 C3         -1.8279   -0.8067   -0.5566 CT        1 <0>        0.14303
      4 C4         -0.0610   -0.8048    1.8719 CT        1 <0>        0.14303
      5 C5          0.2795    0.0072   -1.4826 CT        1 <0>        0.55224
      6 C6          0.9806    1.0150    0.6462 CT        1 <0>        0.55224
      7 C7          1.0463   -0.5094   -2.7102 CT        1 <0>       -0.09101
      8 C8          2.2258    0.9931    1.5451 CT        1 <0>       -0.09101
      9 O1         -0.5509   -1.1029   -1.1125 OS        1 <0>       -0.48016
     10 O2         -0.1485    0.5253    1.3691 OS        1 <0>       -0.48016
     11 O3          1.3234    0.2589   -0.5227 OS        1 <0>       -0.48295
     12 O4         -0.4345    1.1776   -1.8865 OH        1 <0>       -0.61359
     13 O5          0.7345    2.3849    0.2937 OH        1 <0>       -0.61359
     14 H1         -1.6982   -2.7660    0.3307 HC        1 <0>        0.05079
     15 H2         -3.1703   -1.8833    0.7381 HC        1 <0>        0.05079
     16 H3         -2.1351   -0.6084    2.4014 HC        1 <0>        0.05079
     17 H4         -1.4908   -2.2379    2.6088 HC        1 <0>        0.05079
     18 H5         -2.5633   -0.9828   -1.3488 H1        1 <0>        0.04704
     19 H6         -1.9449    0.2277   -0.2252 H1        1 <0>        0.04704
     20 H7          0.3684   -0.7571    2.8782 H1        1 <0>        0.04704
     21 H8          0.5744   -1.4471    1.2531 H1        1 <0>        0.04704
     22 H9          1.7122    0.2681   -3.0718 HC        1 <0>        0.06205
     23 H10         0.3394   -0.7749   -3.4902 HC        1 <0>        0.06205
     24 H11         1.6256   -1.3839   -2.4306 HC        1 <0>        0.06205
     25 H12         3.0821    1.3670    0.9896 HC        1 <0>        0.06205
     26 H13         2.4227   -0.0256    1.8690 HC        1 <0>        0.06205
     27 H14         2.0573    1.6224    2.4153 HC        1 <0>        0.06205
     28 H15        -1.0340    0.9034   -2.5976 HO        1 <0>        0.43337
     29 H16         0.5904    2.8562    1.1267 HO        1 <0>        0.43337
@<TRIPOS>BOND
     1    1    2 1
     2    1    3 1
     3    2    4 1
     4    3    9 1
     5    4   10 1
     6    5    7 1
     7    5    9 1
     8    5   11 1
     9    5   12 1
    10    6    8 1
    11    6   10 1
    12    6   11 1
    13    6   13 1
    14    1   14 1
    15    1   15 1
    16    2   16 1
    17    2   17 1
    18    3   18 1
    19    3   19 1
    20    4   20 1
    21    4   21 1
    22    7   22 1
    23    7   23 1
    24    7   24 1
    25    8   25 1
    26    8   26 1
    27    8   27 1
    28   12   28 1
    29   13   29 1
@<TRIPOS>SUBSTRUCTURE
     1 <0>         1 GROUP 0 A     ****
