@<TRIPOS>MOLECULE
AlkEthOH_r1146
   19    19     1     0     0
SMALL
USER_CHARGES

@<TRIPOS>ATOM
      1 C1          1.2905    1.3503   -0.5970 CT        1 <0>        0.09919
      2 C2          1.9184    0.1166    0.0371 CT        1 <0>        0.11540
      3 C3         -0.9480    0.6836   -0.0817 CT        1 <0>        0.33483
      4 C4          0.1080   -1.4228    0.3298 CT        1 <0>        0.52593
      5 C5         -2.2707    1.3256    0.3103 CT        1 <0>       -0.08638
      6 O1          0.0483    1.7038    0.0053 OS        1 <0>       -0.42900
      7 O2          1.2480   -1.0438   -0.4448 OS        1 <0>       -0.49811
      8 O3         -0.7023   -0.3662    0.8501 OS        1 <0>       -0.45547
      9 O4         -0.6922   -2.3472   -0.4090 OH        1 <0>       -0.62398
     10 H1          1.9582    2.2070   -0.4615 H1        1 <0>        0.05902
     11 H2          1.1337    1.2102   -1.6727 H1        1 <0>        0.05902
     12 H3          2.9592    0.0376   -0.2923 H1        1 <0>        0.06414
     13 H4          1.9051    0.1522    1.1323 H1        1 <0>        0.06414
     14 H5         -1.0324    0.3056   -1.1091 H2        1 <0>        0.06398
     15 H6          0.4891   -1.9634    1.2038 H3        1 <0>        0.10072
     16 H7         -2.2132    1.7102    1.3294 HC        1 <0>        0.05692
     17 H8         -3.0746    0.5905    0.2562 HC        1 <0>        0.05692
     18 H9         -2.5016    2.1505   -0.3650 HC        1 <0>        0.05692
     19 H10        -0.1275   -3.1133   -0.5898 HO        1 <0>        0.43581
@<TRIPOS>BOND
     1    1    2 1
     2    1    6 1
     3    2    7 1
     4    3    5 1
     5    3    6 1
     6    3    8 1
     7    4    7 1
     8    4    8 1
     9    4    9 1
    10    1   10 1
    11    1   11 1
    12    2   12 1
    13    2   13 1
    14    3   14 1
    15    4   15 1
    16    5   16 1
    17    5   17 1
    18    5   18 1
    19    9   19 1
@<TRIPOS>SUBSTRUCTURE
     1 <0>         1 GROUP 0 A     ****
