@<TRIPOS>MOLECULE
AlkEthOH_r896
   29    29     1     0     0
SMALL
USER_CHARGES

@<TRIPOS>ATOM
      1 C1          1.5569   -1.2915    0.3349 CT        1 <0>       -0.08074
      2 C2          2.0170   -0.8705   -1.0604 CT        1 <0>       -0.06945
      3 C3          1.6674   -0.2376    1.4406 CT        1 <0>       -0.06296
      4 C4          1.2394    0.2120   -1.8104 CT        1 <0>       -0.06779
      5 C5          0.6683    0.9263    1.4466 CT        1 <0>       -0.10431
      6 C6         -0.2528   -0.0509   -2.0402 CT        1 <0>       -0.11615
      7 C7         -0.8237    0.5620    1.3848 CT        1 <0>        0.14789
      8 C8         -1.1711    0.5872   -0.9915 CT        1 <0>        0.33438
      9 C9         -1.2518   -0.2868    2.5783 CT        1 <0>       -0.09242
     10 O1         -1.1405   -0.1762    0.2075 OS        1 <0>       -0.40368
     11 O2         -2.5093    0.6261   -1.4902 OH        1 <0>       -0.60879
     12 H1          0.5632   -1.7433    0.2983 HC        1 <0>        0.05181
     13 H2          2.2158   -2.1191    0.6344 HC        1 <0>        0.05181
     14 H3          3.0654   -0.5512   -0.9983 HC        1 <0>        0.03356
     15 H4          2.0218   -1.7716   -1.6884 HC        1 <0>        0.03356
     16 H5          1.5796   -0.7589    2.4027 HC        1 <0>        0.03422
     17 H6          2.6818    0.1813    1.4291 HC        1 <0>        0.03422
     18 H7          1.4024    1.1946   -1.3600 HC        1 <0>        0.03748
     19 H8          1.7061    0.2840   -2.8030 HC        1 <0>        0.03748
     20 H9          0.8415    1.5087    2.3614 HC        1 <0>        0.04004
     21 H10         0.9132    1.6065    0.6278 HC        1 <0>        0.04004
     22 H11        -0.5203    0.3674   -3.0197 HC        1 <0>        0.05614
     23 H12        -0.4434   -1.1290   -2.1103 HC        1 <0>        0.05614
     24 H13        -1.4204    1.4830    1.4010 H1        1 <0>        0.03835
     25 H14        -0.8622    1.6376   -0.8162 H2        1 <0>        0.03486
     26 H15        -0.6803   -1.2139    2.5980 HC        1 <0>        0.04622
     27 H16        -2.3122   -0.5245    2.5027 HC        1 <0>        0.04622
     28 H17        -1.0750    0.2595    3.5041 HC        1 <0>        0.04622
     29 H18        -2.4840    1.1585   -2.2994 HO        1 <0>        0.40565
@<TRIPOS>BOND
     1    1    2 1
     2    1    3 1
     3    2    4 1
     4    3    5 1
     5    4    6 1
     6    5    7 1
     7    6    8 1
     8    7    9 1
     9    7   10 1
    10    8   10 1
    11    8   11 1
    12    1   12 1
    13    1   13 1
    14    2   14 1
    15    2   15 1
    16    3   16 1
    17    3   17 1
    18    4   18 1
    19    4   19 1
    20    5   20 1
    21    5   21 1
    22    6   22 1
    23    6   23 1
    24    7   24 1
    25    8   25 1
    26    9   26 1
    27    9   27 1
    28    9   28 1
    29   11   29 1
@<TRIPOS>SUBSTRUCTURE
     1 <0>         1 GROUP 0 A     ****
