@<TRIPOS>MOLECULE
AlkEthOH_r572
   32    32     1     0     0
SMALL
USER_CHARGES

@<TRIPOS>ATOM
      1 C1         -0.3432    1.7268   -0.2389 CT        1 <0>       -0.09943
      2 C2          0.1662   -0.7809   -0.8258 CT        1 <0>       -0.08605
      3 C3          0.9431    2.0029    0.5475 CT        1 <0>        0.14416
      4 C4          0.9661    0.0835    1.9688 CT        1 <0>        0.32500
      5 C5         -0.2657    0.6325   -1.3355 CT        1 <0>       -0.03166
      6 C6         -0.3885   -1.3467    0.5129 CT        1 <0>        0.16666
      7 C7         -1.6395    0.5594   -2.0381 CT        1 <0>       -0.09216
      8 C8          0.7548    1.0655   -2.4169 CT        1 <0>       -0.09216
      9 C9          0.3625   -2.6478    0.8577 CT        1 <0>       -0.10611
     10 C10        -1.8789   -1.6993    0.3982 CT        1 <0>       -0.10611
     11 O1          1.6353    0.8323    0.9606 OS        1 <0>       -0.45006
     12 O2         -0.3121   -0.4283    1.6094 OS        1 <0>       -0.44752
     13 H1         -1.1478    1.4791    0.4631 HC        1 <0>        0.05260
     14 H2         -0.6596    2.6762   -0.6930 HC        1 <0>        0.05260
     15 H3         -0.0412   -1.5135   -1.6198 HC        1 <0>        0.05062
     16 H4          1.2623   -0.7844   -0.7520 HC        1 <0>        0.05062
     17 H5          1.6345    2.5695   -0.0855 H1        1 <0>        0.04227
     18 H6          0.7304    2.6363    1.4170 H1        1 <0>        0.04227
     19 H7          1.6222   -0.7344    2.2806 H2        1 <0>        0.05928
     20 H8          0.8308    0.7217    2.8492 H2        1 <0>        0.05928
     21 H9         -1.6010   -0.2016   -2.8077 HC        1 <0>        0.03425
     22 H10        -1.8596    1.5229   -2.4810 HC        1 <0>        0.03425
     23 H11        -2.3962    0.3071   -1.3055 HC        1 <0>        0.03425
     24 H12         0.8026    0.2975   -3.1771 HC        1 <0>        0.03425
     25 H13         1.7230    1.1902   -1.9510 HC        1 <0>        0.03425
     26 H14         0.4259    2.0002   -2.8507 HC        1 <0>        0.03425
     27 H15        -0.0228   -3.0436    1.7905 HC        1 <0>        0.04340
     28 H16         1.4198   -2.4311    0.9593 HC        1 <0>        0.04340
     29 H17         0.2094   -3.3677    0.0617 HC        1 <0>        0.04340
     30 H18        -2.2312   -2.0900    1.3482 HC        1 <0>        0.04340
     31 H19        -2.0135   -2.4493   -0.3754 HC        1 <0>        0.04340
     32 H20        -2.4418   -0.8069    0.1411 HC        1 <0>        0.04340
@<TRIPOS>BOND
     1    1    3 1
     2    1    5 1
     3    2    5 1
     4    2    6 1
     5    3   11 1
     6    4   11 1
     7    4   12 1
     8    5    7 1
     9    5    8 1
    10    6    9 1
    11    6   10 1
    12    6   12 1
    13    1   13 1
    14    1   14 1
    15    2   15 1
    16    2   16 1
    17    3   17 1
    18    3   18 1
    19    4   19 1
    20    4   20 1
    21    7   21 1
    22    7   22 1
    23    7   23 1
    24    8   24 1
    25    8   25 1
    26    8   26 1
    27    9   27 1
    28    9   28 1
    29    9   29 1
    30   10   30 1
    31   10   31 1
    32   10   32 1
@<TRIPOS>SUBSTRUCTURE
     1 <0>         1 GROUP 0 A     ****
