@<TRIPOS>MOLECULE
AlkEthOH_r940
   31    31     1     0     0
SMALL
USER_CHARGES

@<TRIPOS>ATOM
      1 C1         -0.2565   -0.6080    2.1458 CT        1 <0>       -0.06282
      2 C2         -0.1969   -1.7998    1.1879 CT        1 <0>       -0.11042
      3 C3          0.0863    0.7827    1.5966 CT        1 <0>       -0.07890
      4 C4         -0.9248    0.8106   -0.8479 CT        1 <0>       -0.06702
      5 C5          1.1741   -2.0402    0.5607 CT        1 <0>        0.13533
      6 C6          0.9969   -0.7751   -1.4620 CT        1 <0>        0.13412
      7 C7         -0.8624    1.4238    0.5669 CT        1 <0>       -0.05447
      8 C8          0.4207    0.6461   -1.5932 CT        1 <0>       -0.08269
      9 C9         -2.2853    1.5434    1.1298 CT        1 <0>       -0.09243
     10 C10         0.2138    0.9501   -3.0834 CT        1 <0>       -0.09219
     11 O1          1.6342   -0.9336   -0.2012 OS        1 <0>       -0.42276
     12 H1         -1.2529   -0.5816    2.6025 HC        1 <0>        0.03463
     13 H2          0.4359   -0.8120    2.9737 HC        1 <0>        0.03463
     14 H3         -0.4695   -2.7000    1.7533 HC        1 <0>        0.04384
     15 H4         -0.9612   -1.6957    0.4164 HC        1 <0>        0.04384
     16 H5          0.0996    1.4541    2.4682 HC        1 <0>        0.04865
     17 H6          1.1163    0.8165    1.2321 HC        1 <0>        0.04865
     18 H7         -1.4780   -0.1334   -0.8424 HC        1 <0>        0.03648
     19 H8         -1.5594    1.4889   -1.4369 HC        1 <0>        0.03648
     20 H9          1.9078   -2.2085    1.3565 H1        1 <0>        0.04321
     21 H10         1.1665   -2.9442   -0.0597 H1        1 <0>        0.04321
     22 H11         0.2274   -1.5354   -1.6439 H1        1 <0>        0.03741
     23 H12         1.7786   -0.9296   -2.2147 H1        1 <0>        0.03741
     24 H13        -0.4975    2.4528    0.4338 HC        1 <0>        0.03950
     25 H14         1.1414    1.3726   -1.1980 HC        1 <0>        0.06762
     26 H15        -2.6984    0.5504    1.2824 HC        1 <0>        0.03214
     27 H16        -2.9071    2.0907    0.4272 HC        1 <0>        0.03214
     28 H17        -2.2558    2.0735    2.0775 HC        1 <0>        0.03214
     29 H18        -0.4975    0.2434   -3.5011 HC        1 <0>        0.03409
     30 H19         1.1622    0.8615   -3.6054 HC        1 <0>        0.03409
     31 H20        -0.1695    1.9602   -3.1964 HC        1 <0>        0.03409
@<TRIPOS>BOND
     1    1    2 1
     2    1    3 1
     3    2    5 1
     4    3    7 1
     5    4    7 1
     6    4    8 1
     7    5   11 1
     8    6    8 1
     9    6   11 1
    10    7    9 1
    11    8   10 1
    12    1   12 1
    13    1   13 1
    14    2   14 1
    15    2   15 1
    16    3   16 1
    17    3   17 1
    18    4   18 1
    19    4   19 1
    20    5   20 1
    21    5   21 1
    22    6   22 1
    23    6   23 1
    24    7   24 1
    25    8   25 1
    26    9   26 1
    27    9   27 1
    28    9   28 1
    29   10   29 1
    30   10   30 1
    31   10   31 1
@<TRIPOS>SUBSTRUCTURE
     1 <0>         1 GROUP 0 A     ****
