@<TRIPOS>MOLECULE
AlkEthOH_c901
   11    10     1     0     0
SMALL
USER_CHARGES

@<TRIPOS>ATOM
      1 C1         -0.5532   -0.2786    0.9029 CT        1 <0>       -0.09261
      2 C2          1.1307    0.8191    2.3889 CT        1 <0>       -0.09261
      3 C3          0.3849   -0.4425    2.0870 CT        1 <0>       -0.08078
      4 H1         -0.0029    0.0213    0.0052 HC        1 <0>        0.03197
      5 H2         -1.0709   -1.2172    0.6798 HC        1 <0>        0.03197
      6 H3         -1.3062    0.4865    1.1149 HC        1 <0>        0.03197
      7 H4          1.7106    1.1284    1.5113 HC        1 <0>        0.03197
      8 H5          1.8273    0.6691    3.2205 HC        1 <0>        0.03197
      9 H6          0.4377    1.6289    2.6406 HC        1 <0>        0.03197
     10 H7         -0.1907   -0.7423    2.9698 HC        1 <0>        0.03709
     11 H8          1.1014   -1.2443    1.8766 HC        1 <0>        0.03709
@<TRIPOS>BOND
     1    1    3 1
     2    2    3 1
     3    1    4 1
     4    1    5 1
     5    1    6 1
     6    2    7 1
     7    2    8 1
     8    2    9 1
     9    3   10 1
    10    3   11 1
@<TRIPOS>SUBSTRUCTURE
     1 <0>         1 GROUP 0 A     ****
