@<TRIPOS>MOLECULE
AlkEthOH_c668
   22    21     1     0     0
SMALL
USER_CHARGES

@<TRIPOS>ATOM
      1 C1          0.3232   -0.9461   -1.7831 CT        1 <0>       -0.09231
      2 C2         -1.2899    2.4308    0.6910 CT        1 <0>       -0.13023
      3 C3          0.1699    0.3985    0.3822 CT        1 <0>       -0.06734
      4 C4          1.7344   -1.5848    0.1823 CT        1 <0>        0.13077
      5 C5          0.3859   -0.9942   -0.2556 CT        1 <0>       -0.06543
      6 C6         -1.1712    1.0589    0.0380 CT        1 <0>        0.14027
      7 O1          1.7987   -1.6557    1.6006 OH        1 <0>       -0.59825
      8 O2         -2.2344    0.2344    0.5049 OH        1 <0>       -0.59780
      9 H1          1.0982   -0.2886   -2.1910 HC        1 <0>        0.03474
     10 H2          0.4682   -1.9446   -2.2099 HC        1 <0>        0.03474
     11 H3         -0.6495   -0.5870   -2.1321 HC        1 <0>        0.03474
     12 H4         -1.1891    2.3578    1.7795 HC        1 <0>        0.04194
     13 H5         -0.5286    3.1192    0.3117 HC        1 <0>        0.04194
     14 H6         -2.2774    2.8630    0.4960 HC        1 <0>        0.04194
     15 H7          0.2278    0.2879    1.4730 HC        1 <0>        0.05642
     16 H8          0.9887    1.0668    0.0863 HC        1 <0>        0.05642
     17 H9          1.8560   -2.6000   -0.2104 H1        1 <0>        0.01879
     18 H10         2.5680   -0.9706   -0.1749 H1        1 <0>        0.01879
     19 H11        -0.4059   -1.6625    0.1066 HC        1 <0>        0.08099
     20 H12        -1.2765    1.1710   -1.0457 H1        1 <0>        0.02649
     21 H13         2.6650   -2.0333    1.8229 HO        1 <0>        0.39679
     22 H14        -3.0598    0.6746    0.2481 HO        1 <0>        0.39559
@<TRIPOS>BOND
     1    1    5 1
     2    2    6 1
     3    3    5 1
     4    3    6 1
     5    4    5 1
     6    4    7 1
     7    6    8 1
     8    1    9 1
     9    1   10 1
    10    1   11 1
    11    2   12 1
    12    2   13 1
    13    2   14 1
    14    3   15 1
    15    3   16 1
    16    4   17 1
    17    4   18 1
    18    5   19 1
    19    6   20 1
    20    7   21 1
    21    8   22 1
@<TRIPOS>SUBSTRUCTURE
     1 <0>         1 GROUP 0 A     ****
