@<TRIPOS>MOLECULE
AlkEthOH_r975
   27    27     1     0     0
SMALL
USER_CHARGES

@<TRIPOS>ATOM
      1 C1         -0.8673    1.8939   -0.9528 CT        1 <0>       -0.10879
      2 C2          0.5805    1.5632   -1.3446 CT        1 <0>       -0.09992
      3 C3         -1.1737    1.6944    0.5327 CT        1 <0>        0.12605
      4 C4         -1.4328   -0.7180    0.3052 CT        1 <0>        0.08930
      5 C5          1.0049    0.1061   -1.1281 CT        1 <0>        0.14832
      6 C6         -0.0041   -1.1237    0.7023 CT        1 <0>        0.31652
      7 C7          2.4414   -0.0996   -1.6022 CT        1 <0>       -0.10028
      8 C8          0.1230   -1.2187    2.2252 CT        1 <0>       -0.11290
      9 O1         -1.8967    0.5090    0.8514 OS        1 <0>       -0.41499
     10 O2          0.9851   -0.1877    0.2680 OS        1 <0>       -0.41296
     11 O3          0.2397   -2.4188    0.1431 OH        1 <0>       -0.62263
     12 H1         -1.0132    2.9571   -1.1849 HC        1 <0>        0.04958
     13 H2         -1.5681    1.3404   -1.5864 HC        1 <0>        0.04958
     14 H3          0.7138    1.8236   -2.4021 HC        1 <0>        0.04962
     15 H4          1.2440    2.2227   -0.7694 HC        1 <0>        0.04962
     16 H5         -0.2780    1.7649    1.1587 H1        1 <0>        0.05580
     17 H6         -1.8215    2.5171    0.8575 H1        1 <0>        0.05580
     18 H7         -1.5748   -0.7138   -0.7800 H1        1 <0>        0.05516
     19 H8         -2.1249   -1.4934    0.6585 H1        1 <0>        0.05516
     20 H9          0.3637   -0.5695   -1.7048 H1        1 <0>        0.05766
     21 H10         3.1109    0.5577   -1.0494 HC        1 <0>        0.04488
     22 H11         2.5163    0.1276   -2.6645 HC        1 <0>        0.04488
     23 H12         2.7408   -1.1336   -1.4370 HC        1 <0>        0.04488
     24 H13         1.1378   -1.5062    2.4899 HC        1 <0>        0.05625
     25 H14        -0.5723   -1.9642    2.6039 HC        1 <0>        0.05625
     26 H15        -0.1057   -0.2538    2.6717 HC        1 <0>        0.05625
     27 H16        -0.4259   -3.0079    0.5265 HO        1 <0>        0.41091
@<TRIPOS>BOND
     1    1    2 1
     2    1    3 1
     3    2    5 1
     4    3    9 1
     5    4    6 1
     6    4    9 1
     7    5    7 1
     8    5   10 1
     9    6    8 1
    10    6   10 1
    11    6   11 1
    12    1   12 1
    13    1   13 1
    14    2   14 1
    15    2   15 1
    16    3   16 1
    17    3   17 1
    18    4   18 1
    19    4   19 1
    20    5   20 1
    21    7   21 1
    22    7   22 1
    23    7   23 1
    24    8   24 1
    25    8   25 1
    26    8   26 1
    27   11   27 1
@<TRIPOS>SUBSTRUCTURE
     1 <0>         1 GROUP 0 A     ****
