@<TRIPOS>MOLECULE
AlkEthOH_r853
   22    22     1     0     0
SMALL
USER_CHARGES

@<TRIPOS>ATOM
      1 C1         -0.4639    0.9938    0.0189 CT        1 <0>       -0.07507
      2 C2         -1.9517    0.8663   -0.3019 CT        1 <0>       -0.07527
      3 C3         -0.2377    1.6340    1.3836 CT        1 <0>       -0.07579
      4 C4         -2.4734    0.7617    2.1676 CT        1 <0>       -0.10830
      5 C5         -2.7080    0.1102    0.7994 CT        1 <0>       -0.06063
      6 C6         -0.9835    0.8868    2.4861 CT        1 <0>        0.14185
      7 C7         -4.2005    0.0453    0.4813 CT        1 <0>       -0.09036
      8 O1         -0.8138    1.5955    3.7090 OH        1 <0>       -0.60102
      9 H1          0.0003    0.0002    0.0000 HC        1 <0>        0.04170
     10 H2          0.0296    1.5917   -0.7555 HC        1 <0>        0.04170
     11 H3         -2.3801    1.8690   -0.4275 HC        1 <0>        0.04193
     12 H4         -2.0712    0.3483   -1.2611 HC        1 <0>        0.04193
     13 H5          0.8343    1.6606    1.6134 HC        1 <0>        0.05358
     14 H6         -0.5622    2.6826    1.3622 HC        1 <0>        0.05358
     15 H7         -2.9394    1.7559    2.2023 HC        1 <0>        0.04699
     16 H8         -2.9668    0.1785    2.9555 HC        1 <0>        0.04699
     17 H9         -2.3262   -0.9188    0.8369 HC        1 <0>        0.04528
     18 H10        -0.5438   -0.1097    2.6138 H1        1 <0>        0.03000
     19 H11        -4.6123    1.0521    0.4365 HC        1 <0>        0.03448
     20 H12        -4.7186   -0.5179    1.2556 HC        1 <0>        0.03448
     21 H13        -4.3521   -0.4453   -0.4788 HC        1 <0>        0.03448
     22 H14        -1.2971    1.0983    4.3877 HO        1 <0>        0.39747
@<TRIPOS>BOND
     1    1    2 1
     2    1    3 1
     3    2    5 1
     4    3    6 1
     5    4    5 1
     6    4    6 1
     7    5    7 1
     8    6    8 1
     9    1    9 1
    10    1   10 1
    11    2   11 1
    12    2   12 1
    13    3   13 1
    14    3   14 1
    15    4   15 1
    16    4   16 1
    17    5   17 1
    18    6   18 1
    19    7   19 1
    20    7   20 1
    21    7   21 1
    22    8   22 1
@<TRIPOS>SUBSTRUCTURE
     1 <0>         1 GROUP 0 A     ****
