@<TRIPOS>MOLECULE
AlkEthOH_c409
   32    31     1     0     0
SMALL
USER_CHARGES

@<TRIPOS>ATOM
      1 C1         -0.2219    1.2411   -2.6580 CT        1 <0>       -0.09068
      2 C2          2.1709    1.7007   -2.0918 CT        1 <0>       -0.09068
      3 C3         -0.0385   -1.8733   -0.4866 CT        1 <0>       -0.09187
      4 C4         -1.9488   -1.3790    1.8192 CT        1 <0>       -0.08720
      5 C5         -1.2656    1.0051    1.9229 CT        1 <0>       -0.08720
      6 C6          0.3978   -0.7870    2.4403 CT        1 <0>       -0.08720
      7 C7          0.7269    0.5434   -0.3886 CT        1 <0>       -0.07164
      8 C8          1.0021    0.7284   -1.8983 CT        1 <0>       -0.06679
      9 C9         -0.4002   -0.4568   -0.0072 CT        1 <0>       -0.05029
     10 C10        -0.7822   -0.4076    1.5258 CT        1 <0>       -0.04889
     11 H1         -0.5650    2.2005   -2.2563 HC        1 <0>        0.03255
     12 H2          0.0114    1.3836   -3.7188 HC        1 <0>        0.03255
     13 H3         -1.0526    0.5314   -2.6035 HC        1 <0>        0.03255
     14 H4          1.9311    2.6851   -1.6756 HC        1 <0>        0.03255
     15 H5          3.0784    1.3362   -1.5982 HC        1 <0>        0.03255
     16 H6          2.3932    1.8349   -3.1558 HC        1 <0>        0.03255
     17 H7          0.8553   -2.2605    0.0081 HC        1 <0>        0.03386
     18 H8         -0.8381   -2.5839   -0.2555 HC        1 <0>        0.03386
     19 H9          0.1275   -1.9010   -1.5680 HC        1 <0>        0.03386
     20 H10        -1.6796   -2.4102    1.5609 HC        1 <0>        0.03368
     21 H11        -2.8437   -1.1363    1.2380 HC        1 <0>        0.03368
     22 H12        -2.2166   -1.3646    2.8815 HC        1 <0>        0.03368
     23 H13        -0.4977    1.7654    1.7482 HC        1 <0>        0.03368
     24 H14        -2.1629    1.2875    1.3614 HC        1 <0>        0.03368
     25 H15        -1.5143    1.0537    2.9898 HC        1 <0>        0.03368
     26 H16         1.2616   -0.1342    2.2822 HC        1 <0>        0.03368
     27 H17         0.1168   -0.6981    3.4966 HC        1 <0>        0.03368
     28 H18         0.7199   -1.8208    2.2798 HC        1 <0>        0.03368
     29 H19         1.6622    0.2262    0.0884 HC        1 <0>        0.04044
     30 H20         0.4880    1.5310    0.0213 HC        1 <0>        0.04044
     31 H21         1.3073   -0.2295   -2.3343 HC        1 <0>        0.04602
     32 H22        -1.3029   -0.1575   -0.5564 HC        1 <0>        0.04554
@<TRIPOS>BOND
     1    1    8 1
     2    2    8 1
     3    3    9 1
     4    4   10 1
     5    5   10 1
     6    6   10 1
     7    7    8 1
     8    7    9 1
     9    9   10 1
    10    1   11 1
    11    1   12 1
    12    1   13 1
    13    2   14 1
    14    2   15 1
    15    2   16 1
    16    3   17 1
    17    3   18 1
    18    3   19 1
    19    4   20 1
    20    4   21 1
    21    4   22 1
    22    5   23 1
    23    5   24 1
    24    5   25 1
    25    6   26 1
    26    6   27 1
    27    6   28 1
    28    7   29 1
    29    7   30 1
    30    8   31 1
    31    9   32 1
@<TRIPOS>SUBSTRUCTURE
     1 <0>         1 GROUP 0 A     ****
