@<TRIPOS>MOLECULE
AlkEthOH_c413
   27    26     1     0     0
SMALL
USER_CHARGES

@<TRIPOS>ATOM
      1 C1          0.8354   -1.3575   -2.5359 CT        1 <0>       -0.09062
      2 C2          0.1429   -3.3604   -1.2055 CT        1 <0>       -0.09062
      3 C3         -2.0730    0.5009   -1.1211 CT        1 <0>       -0.08912
      4 C4         -0.8496    2.8114    0.4996 CT        1 <0>       -0.13205
      5 C5         -0.2563   -1.0065   -0.3003 CT        1 <0>       -0.06739
      6 C6         -0.1977   -1.9100   -1.5487 CT        1 <0>       -0.06918
      7 C7         -0.6496    0.4723   -0.5419 CT        1 <0>       -0.05211
      8 C8         -0.5183    1.3403    0.7307 CT        1 <0>        0.14200
      9 O1         -1.3702    0.8312    1.7540 OH        1 <0>       -0.59950
     10 H1          1.8350   -1.3480   -2.0882 HC        1 <0>        0.03232
     11 H2          0.8809   -1.9763   -3.4383 HC        1 <0>        0.03232
     12 H3          0.5900   -0.3336   -2.8378 HC        1 <0>        0.03232
     13 H4          1.1081   -3.4338   -0.6955 HC        1 <0>        0.03232
     14 H5         -0.6102   -3.7879   -0.5348 HC        1 <0>        0.03232
     15 H6          0.1839   -3.9821   -2.1062 HC        1 <0>        0.03232
     16 H7         -2.7926    0.0971   -0.4002 HC        1 <0>        0.03765
     17 H8         -2.1483   -0.1131   -2.0236 HC        1 <0>        0.03765
     18 H9         -2.3855    1.5200   -1.3720 HC        1 <0>        0.03765
     19 H10        -1.8699    2.9368    0.1254 HC        1 <0>        0.04239
     20 H11        -0.1591    3.2401   -0.2354 HC        1 <0>        0.04239
     21 H12        -0.7243    3.4027    1.4122 HC        1 <0>        0.04239
     22 H13        -0.9730   -1.4427    0.4094 HC        1 <0>        0.04777
     23 H14         0.7201   -1.0394    0.2015 HC        1 <0>        0.04777
     24 H15        -1.1692   -1.8924   -2.0556 HC        1 <0>        0.04754
     25 H16         0.0147    0.8874   -1.3100 HC        1 <0>        0.04674
     26 H17         0.5102    1.2862    1.1024 H1        1 <0>        0.02827
     27 H18        -1.1937    1.3592    2.5479 HO        1 <0>        0.39646
@<TRIPOS>BOND
     1    1    6 1
     2    2    6 1
     3    3    7 1
     4    4    8 1
     5    5    6 1
     6    5    7 1
     7    7    8 1
     8    8    9 1
     9    1   10 1
    10    1   11 1
    11    1   12 1
    12    2   13 1
    13    2   14 1
    14    2   15 1
    15    3   16 1
    16    3   17 1
    17    3   18 1
    18    4   19 1
    19    4   20 1
    20    4   21 1
    21    5   22 1
    22    5   23 1
    23    6   24 1
    24    7   25 1
    25    8   26 1
    26    9   27 1
@<TRIPOS>SUBSTRUCTURE
     1 <0>         1 GROUP 0 A     ****
