@<TRIPOS>MOLECULE
AlkEthOH_c287
   24    23     1     0     0
SMALL
USER_CHARGES

@<TRIPOS>ATOM
      1 C1         -0.3691    1.0127   -0.3915 CT        1 <0>       -0.08878
      2 C2         -0.5768    2.4074   -2.4566 CT        1 <0>       -0.08878
      3 C3         -2.7168    0.1117   -2.2705 CT        1 <0>       -0.10255
      4 C4         -0.8108   -1.5054   -2.1829 CT        1 <0>       -0.10255
      5 C5          0.2606   -0.1557   -4.3923 CT        1 <0>        0.11561
      6 C6         -0.3101    0.9926   -1.9222 CT        1 <0>       -0.08547
      7 C7         -1.2285   -0.0821   -2.5758 CT        1 <0>        0.15708
      8 O1         -1.0902    0.0111   -4.0012 OS        1 <0>       -0.42242
      9 H1         -1.3843    1.2454   -0.0508 HC        1 <0>        0.03654
     10 H2          0.2913    1.7777    0.0267 HC        1 <0>        0.03654
     11 H3         -0.0924    0.0450    0.0381 HC        1 <0>        0.03654
     12 H4         -1.5979    2.7213   -2.2120 HC        1 <0>        0.03654
     13 H5         -0.4711    2.4565   -3.5449 HC        1 <0>        0.03654
     14 H6          0.1039    3.1394   -2.0111 HC        1 <0>        0.03654
     15 H7         -3.0539    1.1183   -2.5379 HC        1 <0>        0.04356
     16 H8         -2.9492   -0.0692   -1.2170 HC        1 <0>        0.04356
     17 H9         -3.3251   -0.5742   -2.8724 HC        1 <0>        0.04356
     18 H10         0.2481   -1.6958   -2.3817 HC        1 <0>        0.04356
     19 H11        -1.4066   -2.2497   -2.7233 HC        1 <0>        0.04356
     20 H12        -0.9927   -1.6827   -1.1162 HC        1 <0>        0.04356
     21 H13         0.3378   -0.0804   -5.4798 H1        1 <0>        0.03080
     22 H14         0.6200   -1.1320   -4.0576 H1        1 <0>        0.03080
     23 H15         0.8638    0.6301   -3.9313 H1        1 <0>        0.03080
     24 H16         0.7250    0.7555   -2.2067 HC        1 <0>        0.04486
@<TRIPOS>BOND
     1    1    6 1
     2    2    6 1
     3    3    7 1
     4    4    7 1
     5    5    8 1
     6    6    7 1
     7    7    8 1
     8    1    9 1
     9    1   10 1
    10    1   11 1
    11    2   12 1
    12    2   13 1
    13    2   14 1
    14    3   15 1
    15    3   16 1
    16    3   17 1
    17    4   18 1
    18    4   19 1
    19    4   20 1
    20    5   21 1
    21    5   22 1
    22    5   23 1
    23    6   24 1
@<TRIPOS>SUBSTRUCTURE
     1 <0>         1 GROUP 0 A     ****
