@<TRIPOS>MOLECULE
AlkEthOH_r1106
   14    14     1     0     0
SMALL
USER_CHARGES

@<TRIPOS>ATOM
      1 C1          0.8634   -0.5829   -0.3315 CT        1 <0>        0.10850
      2 C2          1.4139   -2.5212   -1.3496 CT        1 <0>        0.33029
      3 C3          1.3467   -1.5745    0.6991 CT        1 <0>        0.11998
      4 C4          2.2252   -0.9680    1.7722 CT        1 <0>       -0.09793
      5 O1          0.5117   -1.4137   -1.4378 OS        1 <0>       -0.44747
      6 O2          2.0842   -2.5149   -0.0851 OS        1 <0>       -0.44355
      7 H1         -0.0002   -0.0002   -0.0005 H1        1 <0>        0.05880
      8 H2          1.6557    0.0994   -0.6598 H1        1 <0>        0.05880
      9 H3          0.8502   -3.4523   -1.4606 H2        1 <0>        0.05389
     10 H4          2.1572   -2.4525   -2.1493 H2        1 <0>        0.05389
     11 H5          0.5020   -2.1097    1.1499 H1        1 <0>        0.05477
     12 H6          3.0668   -0.4348    1.3217 HC        1 <0>        0.05001
     13 H7          2.6213   -1.7479    2.4283 HC        1 <0>        0.05001
     14 H8          1.6537   -0.2615    2.3804 HC        1 <0>        0.05001
@<TRIPOS>BOND
     1    1    3 1
     2    1    5 1
     3    2    5 1
     4    2    6 1
     5    3    4 1
     6    3    6 1
     7    1    7 1
     8    1    8 1
     9    2    9 1
    10    2   10 1
    11    3   11 1
    12    4   12 1
    13    4   13 1
    14    4   14 1
@<TRIPOS>SUBSTRUCTURE
     1 <0>         1 GROUP 0 A     ****
