@<TRIPOS>MOLECULE
AlkEthOH_c824
   22    21     1     0     0
SMALL
USER_CHARGES

@<TRIPOS>ATOM
      1 C1         -0.7839   -2.4478    4.4366 CT        1 <0>       -0.14226
      2 C2         -0.4645   -0.0646    0.9894 CT        1 <0>       -0.10785
      3 C3          1.6273    0.6910    2.1567 CT        1 <0>       -0.10785
      4 C4          1.2036   -1.7604    1.8118 CT        1 <0>       -0.10785
      5 C5         -1.1365   -1.4325    3.3601 CT        1 <0>        0.33214
      6 C6          0.5609   -0.3988    2.0719 CT        1 <0>        0.15376
      7 O1         -2.4191   -0.8735    3.6273 OH        1 <0>       -0.60046
      8 O2         -0.1082   -0.4451    3.3327 OS        1 <0>       -0.40601
      9 H1         -0.7289   -1.9705    5.4201 HC        1 <0>        0.05029
     10 H2         -1.5490   -3.2300    4.4974 HC        1 <0>        0.05029
     11 H3          0.1702   -2.9368    4.2167 HC        1 <0>        0.05029
     12 H4         -1.2317   -0.8445    0.9253 HC        1 <0>        0.04428
     13 H5         -0.9578    0.8935    1.1830 HC        1 <0>        0.04428
     14 H6          0.0103   -0.0162    0.0027 HC        1 <0>        0.04428
     15 H7          2.3651    0.4554    2.9322 HC        1 <0>        0.04428
     16 H8          1.1816    1.6524    2.4367 HC        1 <0>        0.04428
     17 H9          2.1531    0.8168    1.2047 HC        1 <0>        0.04428
     18 H10         1.9391   -2.0003    2.5882 HC        1 <0>        0.04428
     19 H11         0.4566   -2.5604    1.7845 HC        1 <0>        0.04428
     20 H12         1.7476   -1.7592    0.8603 HC        1 <0>        0.04428
     21 H13        -1.1832   -1.9425    2.3911 H2        1 <0>        0.03390
     22 H14        -3.0710   -1.5943    3.6293 HO        1 <0>        0.40309
@<TRIPOS>BOND
     1    1    5 1
     2    2    6 1
     3    3    6 1
     4    4    6 1
     5    5    7 1
     6    5    8 1
     7    6    8 1
     8    1    9 1
     9    1   10 1
    10    1   11 1
    11    2   12 1
    12    2   13 1
    13    2   14 1
    14    3   15 1
    15    3   16 1
    16    3   17 1
    17    4   18 1
    18    4   19 1
    19    4   20 1
    20    5   21 1
    21    7   22 1
@<TRIPOS>SUBSTRUCTURE
     1 <0>         1 GROUP 0 A     ****
