@<TRIPOS>MOLECULE
AlkEthOH_c242
   23    22     1     0     0
SMALL
USER_CHARGES

@<TRIPOS>ATOM
      1 C1          0.2603   -1.7946    1.0268 CT        1 <0>       -0.12661
      2 C2         -2.0469   -1.5545    0.1269 CT        1 <0>       -0.12653
      3 C3          0.7204    1.8940    0.4859 CT        1 <0>       -0.12653
      4 C4          0.8613    1.4342   -1.9552 CT        1 <0>       -0.12653
      5 C5         -0.7897   -0.7886    0.5561 CT        1 <0>        0.36381
      6 C6          0.7826    0.7878   -0.5670 CT        1 <0>        0.36381
      7 O1         -1.1377    0.0422    1.6633 OH        1 <0>       -0.62727
      8 O2          1.9828    0.0435   -0.3601 OH        1 <0>       -0.62727
      9 O3         -0.3847   -0.0391   -0.5933 OS        1 <0>       -0.40722
     10 H1          1.1798   -1.2926    1.3447 HC        1 <0>        0.05216
     11 H2          0.5184   -2.5056    0.2353 HC        1 <0>        0.05216
     12 H3         -0.0936   -2.3513    1.9021 HC        1 <0>        0.05216
     13 H4         -2.8326   -0.8749   -0.2203 HC        1 <0>        0.05216
     14 H5         -1.8184   -2.2353   -0.7018 HC        1 <0>        0.05216
     15 H6         -2.4374   -2.1679    0.9462 HC        1 <0>        0.05216
     16 H7          0.6631    1.4722    1.4959 HC        1 <0>        0.05216
     17 H8         -0.1787    2.5074    0.3677 HC        1 <0>        0.05216
     18 H9          1.5915    2.5543    0.4264 HC        1 <0>        0.05216
     19 H10         0.9074    0.6653   -2.7357 HC        1 <0>        0.05216
     20 H11        -0.0249    2.0447   -2.1600 HC        1 <0>        0.05216
     21 H12         1.7580    2.0545   -2.0594 HC        1 <0>        0.05216
     22 H13        -1.4960   -0.5203    2.3701 HO        1 <0>        0.40721
     23 H14         2.7392    0.6465   -0.4528 HO        1 <0>        0.40721
@<TRIPOS>BOND
     1    1    5 1
     2    2    5 1
     3    3    6 1
     4    4    6 1
     5    5    7 1
     6    5    9 1
     7    6    8 1
     8    6    9 1
     9    1   10 1
    10    1   11 1
    11    1   12 1
    12    2   13 1
    13    2   14 1
    14    2   15 1
    15    3   16 1
    16    3   17 1
    17    3   18 1
    18    4   19 1
    19    4   20 1
    20    4   21 1
    21    7   22 1
    22    8   23 1
@<TRIPOS>SUBSTRUCTURE
     1 <0>         1 GROUP 0 A     ****
