@<TRIPOS>MOLECULE
AlkEthOH_r654
   28    28     1     0     0
SMALL
USER_CHARGES

@<TRIPOS>ATOM
      1 C1          1.1141    1.6394   -1.5178 CT        1 <0>        0.11072
      2 C2          0.0503    2.0769   -0.5220 CT        1 <0>        0.11531
      3 C3          1.0344   -0.7269   -1.1396 CT        1 <0>        0.10396
      4 C4          0.6671   -1.2198    0.2720 CT        1 <0>        0.15819
      5 C5         -1.2750    0.3238    0.4983 CT        1 <0>        0.54023
      6 C6          1.9513   -1.4293    1.0961 CT        1 <0>       -0.10034
      7 C7         -0.0622   -2.5681    0.1863 CT        1 <0>       -0.10034
      8 C8         -1.8713    1.1617    1.6426 CT        1 <0>       -0.11165
      9 O1          1.8062    0.4725   -1.0789 OS        1 <0>       -0.41460
     10 O2         -1.0676    1.1979   -0.6187 OS        1 <0>       -0.49815
     11 O3         -0.0888   -0.2736    1.0392 OS        1 <0>       -0.43466
     12 O4         -2.2584   -0.6545    0.1426 OH        1 <0>       -0.60959
     13 H1          0.6926    1.4637   -2.5143 H1        1 <0>        0.05511
     14 H2          1.8649    2.4311   -1.6074 H1        1 <0>        0.05511
     15 H3          0.4595    2.1247    0.4923 H1        1 <0>        0.05803
     16 H4         -0.3061    3.0752   -0.7948 H1        1 <0>        0.05803
     17 H5          1.6658   -1.4773   -1.6309 H1        1 <0>        0.05850
     18 H6          0.1522   -0.6084   -1.7789 H1        1 <0>        0.05850
     19 H7          1.6841   -1.7760    2.0878 HC        1 <0>        0.04828
     20 H8          2.4849   -0.4883    1.1670 HC        1 <0>        0.04828
     21 H9          2.5727   -2.1683    0.6031 HC        1 <0>        0.04828
     22 H10        -0.3162   -2.9057    1.1869 HC        1 <0>        0.04828
     23 H11         0.5847   -3.2991   -0.2899 HC        1 <0>        0.04828
     24 H12        -0.9700   -2.4512   -0.3986 HC        1 <0>        0.04828
     25 H13        -2.0410    0.5261    2.5074 HC        1 <0>        0.05891
     26 H14        -2.8148    1.5948    1.3215 HC        1 <0>        0.05891
     27 H15        -1.1801    1.9570    1.9083 HC        1 <0>        0.05891
     28 H16        -3.0447   -0.1621   -0.1364 HO        1 <0>        0.43123
@<TRIPOS>BOND
     1    1    2 1
     2    1    9 1
     3    2   10 1
     4    3    4 1
     5    3    9 1
     6    4    6 1
     7    4    7 1
     8    4   11 1
     9    5    8 1
    10    5   10 1
    11    5   11 1
    12    5   12 1
    13    1   13 1
    14    1   14 1
    15    2   15 1
    16    2   16 1
    17    3   17 1
    18    3   18 1
    19    6   19 1
    20    6   20 1
    21    6   21 1
    22    7   22 1
    23    7   23 1
    24    7   24 1
    25    8   25 1
    26    8   26 1
    27    8   27 1
    28   12   28 1
@<TRIPOS>SUBSTRUCTURE
     1 <0>         1 GROUP 0 A     ****
