@<TRIPOS>MOLECULE
AlkEthOH_c765
   24    23     1     0     0
SMALL
USER_CHARGES

@<TRIPOS>ATOM
      1 C1          1.6819   -1.3779    0.1285 CT        1 <0>       -0.09015
      2 C2         -1.5341    0.9330   -0.0992 CT        1 <0>       -0.08800
      3 C3         -0.9201   -0.8133    1.5798 CT        1 <0>       -0.08800
      4 C4         -1.2830   -1.4546   -0.7929 CT        1 <0>       -0.08800
      5 C5          1.1174    0.3554   -1.5985 CT        1 <0>        0.13129
      6 C6          0.8213   -0.1352   -0.1671 CT        1 <0>       -0.05493
      7 C7         -0.7099   -0.3493    0.1212 CT        1 <0>       -0.05022
      8 O1          2.4978    0.6850   -1.7230 OH        1 <0>       -0.60453
      9 H1          1.4034   -2.2237   -0.5059 HC        1 <0>        0.03933
     10 H2          2.7476   -1.1745   -0.0130 HC        1 <0>        0.03933
     11 H3          1.5465   -1.7126    1.1628 HC        1 <0>        0.03933
     12 H4         -1.4160    1.3014   -1.1252 HC        1 <0>        0.03474
     13 H5         -2.6033    0.7604    0.0591 HC        1 <0>        0.03474
     14 H6         -1.2178    1.7390    0.5704 HC        1 <0>        0.03474
     15 H7         -0.3521   -1.7273    1.7899 HC        1 <0>        0.03474
     16 H8         -1.9694   -1.0411    1.7915 HC        1 <0>        0.03474
     17 H9         -0.5871   -0.0474    2.2890 HC        1 <0>        0.03474
     18 H10        -0.7289   -2.3920   -0.6733 HC        1 <0>        0.03474
     19 H11        -2.3338   -1.6593   -0.5560 HC        1 <0>        0.03474
     20 H12        -1.2497   -1.1698   -1.8493 HC        1 <0>        0.03474
     21 H13         0.8865   -0.4159   -2.3397 H1        1 <0>        0.02272
     22 H14         0.5518    1.2582   -1.8401 H1        1 <0>        0.02272
     23 H15         1.1826    0.6449    0.5190 HC        1 <0>        0.05908
     24 H16         2.6293    0.9856   -2.6357 HO        1 <0>        0.39737
@<TRIPOS>BOND
     1    1    6 1
     2    2    7 1
     3    3    7 1
     4    4    7 1
     5    5    6 1
     6    5    8 1
     7    6    7 1
     8    1    9 1
     9    1   10 1
    10    1   11 1
    11    2   12 1
    12    2   13 1
    13    2   14 1
    14    3   15 1
    15    3   16 1
    16    3   17 1
    17    4   18 1
    18    4   19 1
    19    4   20 1
    20    5   21 1
    21    5   22 1
    22    6   23 1
    23    8   24 1
@<TRIPOS>SUBSTRUCTURE
     1 <0>         1 GROUP 0 A     ****
