@<TRIPOS>MOLECULE
AlkEthOH_r1138
   28    28     1     0     0
SMALL
USER_CHARGES

@<TRIPOS>ATOM
      1 C1          1.7370   -0.6411    1.3100 CT        1 <0>       -0.14471
      2 C2          2.4160    0.3066    0.3212 CT        1 <0>        0.14452
      3 C3          1.1758   -1.8926    0.6368 CT        1 <0>        0.14632
      4 C4          0.5889    1.7340   -0.2662 CT        1 <0>        0.08855
      5 C5         -1.0719   -1.1712   -0.0029 CT        1 <0>        0.34302
      6 C6         -0.8418    1.2143   -0.4625 CT        1 <0>        0.34215
      7 C7         -1.7351   -2.0709    1.0367 CT        1 <0>       -0.11658
      8 C8         -1.8244    2.3405   -0.1305 CT        1 <0>       -0.09671
      9 O1          1.5323    0.7555   -0.7010 OS        1 <0>       -0.41526
     10 O2          0.2249   -1.6290   -0.3895 OS        1 <0>       -0.43931
     11 O3         -1.1339    0.1721    0.4793 OS        1 <0>       -0.49127
     12 O4         -1.0678    0.8817   -1.8315 OH        1 <0>       -0.61042
     13 H1          2.4695   -0.9451    2.0668 HC        1 <0>        0.05975
     14 H2          0.9358   -0.1165    1.8382 HC        1 <0>        0.05975
     15 H3          2.8571    1.1654    0.8409 H1        1 <0>        0.04399
     16 H4          3.2386   -0.2193   -0.1758 H1        1 <0>        0.04399
     17 H5          2.0033   -2.4282    0.1568 H1        1 <0>        0.04197
     18 H6          0.7672   -2.5836    1.3804 H1        1 <0>        0.04197
     19 H7          0.7565    2.6141   -0.8973 H1        1 <0>        0.05866
     20 H8          0.7615    2.0248    0.7771 H1        1 <0>        0.05866
     21 H9         -1.6964   -1.2414   -0.9009 H2        1 <0>        0.09502
     22 H10        -1.1631   -2.0496    1.9632 HC        1 <0>        0.05148
     23 H11        -1.7767   -3.0945    0.6674 HC        1 <0>        0.05148
     24 H12        -2.7477   -1.7224    1.2353 HC        1 <0>        0.05148
     25 H13        -2.8425    1.9853   -0.2656 HC        1 <0>        0.05225
     26 H14        -1.6454    3.1846   -0.7909 HC        1 <0>        0.05225
     27 H15        -1.6840    2.6521    0.9011 HC        1 <0>        0.05225
     28 H16        -0.9296    1.6966   -2.3371 HO        1 <0>        0.43475
@<TRIPOS>BOND
     1    1    2 1
     2    1    3 1
     3    2    9 1
     4    3   10 1
     5    4    6 1
     6    4    9 1
     7    5    7 1
     8    5   10 1
     9    5   11 1
    10    6    8 1
    11    6   11 1
    12    6   12 1
    13    1   13 1
    14    1   14 1
    15    2   15 1
    16    2   16 1
    17    3   17 1
    18    3   18 1
    19    4   19 1
    20    4   20 1
    21    5   21 1
    22    7   22 1
    23    7   23 1
    24    7   24 1
    25    8   25 1
    26    8   26 1
    27    8   27 1
    28   12   28 1
@<TRIPOS>SUBSTRUCTURE
     1 <0>         1 GROUP 0 A     ****
