@<TRIPOS>MOLECULE
AlkEthOH_c1120
   26    25     1     0     0
SMALL
USER_CHARGES

@<TRIPOS>ATOM
      1 C1          0.3123   -0.2206   -0.9324 CT        1 <0>       -0.09164
      2 C2          5.0542   -4.2753    0.5495 CT        1 <0>       -0.08634
      3 C3          3.1855   -3.6437    2.0967 CT        1 <0>       -0.08634
      4 C4          2.7189   -5.0186    0.0640 CT        1 <0>       -0.08634
      5 C5          1.7240   -0.7812   -1.0025 CT        1 <0>       -0.08065
      6 C6          1.8599   -2.0642   -0.1788 CT        1 <0>       -0.07805
      7 C7          3.2967   -2.5988   -0.2265 CT        1 <0>       -0.06797
      8 C8          3.5742   -3.8659    0.6259 CT        1 <0>       -0.05430
      9 H1         -0.4076   -0.9607   -1.2955 HC        1 <0>        0.03259
     10 H2          0.2161    0.6785   -1.5493 HC        1 <0>        0.03259
     11 H3          0.0435    0.0381    0.0969 HC        1 <0>        0.03259
     12 H4          5.3647   -4.4420   -0.4878 HC        1 <0>        0.03354
     13 H5          5.2346   -5.2038    1.1034 HC        1 <0>        0.03354
     14 H6          5.7102   -3.5115    0.9794 HC        1 <0>        0.03354
     15 H7          2.1332   -3.3498    2.1858 HC        1 <0>        0.03354
     16 H8          3.7907   -2.8507    2.5497 HC        1 <0>        0.03354
     17 H9          3.3176   -4.5518    2.6936 HC        1 <0>        0.03354
     18 H10         1.6515   -4.7724    0.0977 HC        1 <0>        0.03354
     19 H11         2.9797   -5.2331   -0.9784 HC        1 <0>        0.03354
     20 H12         2.8651   -5.9400    0.6390 HC        1 <0>        0.03354
     21 H13         2.4290   -0.0263   -0.6353 HC        1 <0>        0.03702
     22 H14         1.9791   -0.9819   -2.0495 HC        1 <0>        0.03702
     23 H15         1.1640   -2.8135   -0.5711 HC        1 <0>        0.04069
     24 H16         1.5685   -1.8546    0.8560 HC        1 <0>        0.04069
     25 H17         3.5535   -2.8118   -1.2731 HC        1 <0>        0.03829
     26 H18         3.9759   -1.7980    0.0962 HC        1 <0>        0.03829
@<TRIPOS>BOND
     1    1    5 1
     2    2    8 1
     3    3    8 1
     4    4    8 1
     5    5    6 1
     6    6    7 1
     7    7    8 1
     8    1    9 1
     9    1   10 1
    10    1   11 1
    11    2   12 1
    12    2   13 1
    13    2   14 1
    14    3   15 1
    15    3   16 1
    16    3   17 1
    17    4   18 1
    18    4   19 1
    19    4   20 1
    20    5   21 1
    21    5   22 1
    22    6   23 1
    23    6   24 1
    24    7   25 1
    25    7   26 1
@<TRIPOS>SUBSTRUCTURE
     1 <0>         1 GROUP 0 A     ****
