@<TRIPOS>MOLECULE
AlkEthOH_c1088
   18    17     1     0     0
SMALL
USER_CHARGES

@<TRIPOS>ATOM
      1 C1         -0.3634    0.7825   -0.7780 CT        1 <0>       -0.09167
      2 C2         -0.7529   -2.7862   -4.3246 CT        1 <0>       -0.12927
      3 C3          0.1199    0.3162   -2.1425 CT        1 <0>       -0.07949
      4 C4         -0.5207   -1.0174   -2.5371 CT        1 <0>       -0.07149
      5 C5         -0.0767   -1.4806   -3.9284 CT        1 <0>        0.13865
      6 O1         -0.3950   -0.4880   -4.9002 OH        1 <0>       -0.60017
      7 H1         -0.1362    0.0287   -0.0177 HC        1 <0>        0.03179
      8 H2         -1.4456    0.9471   -0.7802 HC        1 <0>        0.03179
      9 H3          0.1262    1.7172   -0.4869 HC        1 <0>        0.03179
     10 H4         -1.8437   -2.6826   -4.3178 HC        1 <0>        0.04204
     11 H5         -0.4702   -3.0674   -5.3448 HC        1 <0>        0.04204
     12 H6         -0.4739   -3.5998   -3.6481 HC        1 <0>        0.04204
     13 H7         -0.1180    1.0853   -2.8860 HC        1 <0>        0.04697
     14 H8          1.2109    0.2118   -2.1203 HC        1 <0>        0.04697
     15 H9         -0.2591   -1.7818   -1.7954 HC        1 <0>        0.04630
     16 H10        -1.6117   -0.9003   -2.5183 HC        1 <0>        0.04630
     17 H11         1.0097   -1.6199   -3.9459 H1        1 <0>        0.02887
     18 H12        -0.0587   -0.8146   -5.7492 HO        1 <0>        0.39654
@<TRIPOS>BOND
     1    1    3 1
     2    2    5 1
     3    3    4 1
     4    4    5 1
     5    5    6 1
     6    1    7 1
     7    1    8 1
     8    1    9 1
     9    2   10 1
    10    2   11 1
    11    2   12 1
    12    3   13 1
    13    3   14 1
    14    4   15 1
    15    4   16 1
    16    5   17 1
    17    6   18 1
@<TRIPOS>SUBSTRUCTURE
     1 <0>         1 GROUP 0 A     ****
