@<TRIPOS>MOLECULE
AlkEthOH_c241
   16    15     1     0     0
SMALL
USER_CHARGES

@<TRIPOS>ATOM
      1 C1         -1.3870   -0.0280   -0.0281 CT        1 <0>       -0.13134
      2 C2          0.2117    1.6684    0.8662 CT        1 <0>       -0.13134
      3 C3          0.9791   -1.1574   -1.3784 CT        1 <0>        0.12358
      4 C4          0.0686    0.2298    0.3677 CT        1 <0>        0.34277
      5 O1          0.4413   -0.6121    1.4590 OH        1 <0>       -0.62207
      6 O2          0.9647    0.1133   -0.7445 OS        1 <0>       -0.41250
      7 H1         -1.5212   -1.0532   -0.3903 HC        1 <0>        0.05141
      8 H2         -2.0651    0.1483    0.8132 HC        1 <0>        0.05141
      9 H3         -1.6987    0.6296   -0.8467 HC        1 <0>        0.05141
     10 H4          1.2499    1.8720    1.1549 HC        1 <0>        0.05141
     11 H5         -0.4094    1.8503    1.7500 HC        1 <0>        0.05141
     12 H6         -0.0536    2.3899    0.0860 HC        1 <0>        0.05141
     13 H7          1.6897   -1.1432   -2.2085 H1        1 <0>        0.03754
     14 H8         -0.0226   -1.3934   -1.7462 H1        1 <0>        0.03754
     15 H9          1.2860   -1.9136   -0.6520 H1        1 <0>        0.03754
     16 H10        -0.1424   -0.4132    2.2102 HO        1 <0>        0.40982
@<TRIPOS>BOND
     1    1    4 1
     2    2    4 1
     3    3    6 1
     4    4    5 1
     5    4    6 1
     6    1    7 1
     7    1    8 1
     8    1    9 1
     9    2   10 1
    10    2   11 1
    11    2   12 1
    12    3   13 1
    13    3   14 1
    14    3   15 1
    15    5   16 1
@<TRIPOS>SUBSTRUCTURE
     1 <0>         1 GROUP 0 A     ****
