@<TRIPOS>MOLECULE
AlkEthOH_c1016
   28    27     1     0     0
SMALL
USER_CHARGES

@<TRIPOS>ATOM
      1 C1         -1.7815   -0.0509   -3.0449 CT        1 <0>       -0.09210
      2 C2          2.3130   -0.5479    0.4334 CT        1 <0>       -0.12324
      3 C3          1.3772    1.6677    1.1353 CT        1 <0>       -0.12324
      4 C4         -1.4104    0.4456    1.3073 CT        1 <0>       -0.12116
      5 C5         -1.7827   -0.1872   -1.5287 CT        1 <0>       -0.08031
      6 C6         -0.3632   -0.0556   -0.9563 CT        1 <0>       -0.11039
      7 C7          1.1444    0.1506    1.1474 CT        1 <0>        0.16440
      8 C8         -0.2574   -0.2668    0.5764 CT        1 <0>        0.16978
      9 O1          1.1967   -0.2734    2.5205 OH        1 <0>       -0.58739
     10 O2         -0.4292   -1.6734    0.8179 OH        1 <0>       -0.58756
     11 H1         -1.1411   -0.8090   -3.5070 HC        1 <0>        0.03461
     12 H2         -2.7953   -0.1783   -3.4372 HC        1 <0>        0.03461
     13 H3         -1.4208    0.9368   -3.3494 HC        1 <0>        0.03461
     14 H4          2.1698   -1.6353    0.4287 HC        1 <0>        0.04488
     15 H5          2.3742   -0.2490   -0.6186 HC        1 <0>        0.04488
     16 H6          3.2739   -0.3422    0.9137 HC        1 <0>        0.04488
     17 H7          0.5636    2.2019    1.6362 HC        1 <0>        0.04488
     18 H8          2.2871    1.9233    1.6917 HC        1 <0>        0.04488
     19 H9          1.4865    2.0613    0.1208 HC        1 <0>        0.04488
     20 H10        -1.3472    0.3041    2.3918 HC        1 <0>        0.04812
     21 H11        -1.4222    1.5198    1.1001 HC        1 <0>        0.04812
     22 H12        -2.3815    0.0272    1.0206 HC        1 <0>        0.04812
     23 H13        -2.4342    0.5890   -1.1138 HC        1 <0>        0.03783
     24 H14        -2.2142   -1.1579   -1.2610 HC        1 <0>        0.03783
     25 H15         0.0292    0.9309   -1.2277 HC        1 <0>        0.05255
     26 H16         0.2558   -0.8031   -1.4659 HC        1 <0>        0.05255
     27 H17         2.0584    0.0118    2.8516 HO        1 <0>        0.39654
     28 H18        -1.2952   -1.8998    0.4538 HO        1 <0>        0.39644
@<TRIPOS>BOND
     1    1    5 1
     2    2    7 1
     3    3    7 1
     4    4    8 1
     5    5    6 1
     6    6    8 1
     7    7    8 1
     8    7    9 1
     9    8   10 1
    10    1   11 1
    11    1   12 1
    12    1   13 1
    13    2   14 1
    14    2   15 1
    15    2   16 1
    16    3   17 1
    17    3   18 1
    18    3   19 1
    19    4   20 1
    20    4   21 1
    21    4   22 1
    22    5   23 1
    23    5   24 1
    24    6   25 1
    25    6   26 1
    26    9   27 1
    27   10   28 1
@<TRIPOS>SUBSTRUCTURE
     1 <0>         1 GROUP 0 A     ****
