@<TRIPOS>MOLECULE
AlkEthOH_c412
   29    28     1     0     0
SMALL
USER_CHARGES

@<TRIPOS>ATOM
      1 C1         -2.5308   -1.5831   -1.0113 CT        1 <0>       -0.09055
      2 C2         -0.7526   -3.2883   -1.4485 CT        1 <0>       -0.09055
      3 C3          0.2102    2.8769    0.3150 CT        1 <0>       -0.09000
      4 C4          2.0026    1.1314    0.2353 CT        1 <0>       -0.09000
      5 C5         -0.1627    1.0825   -2.1171 CT        1 <0>       -0.08967
      6 C6         -0.1278   -0.9457   -0.6490 CT        1 <0>       -0.06933
      7 C7         -1.0936   -1.7985   -1.4961 CT        1 <0>       -0.06827
      8 C8          0.4956    1.3709    0.3612 CT        1 <0>       -0.06339
      9 C9         -0.3575    0.5858   -0.6760 CT        1 <0>       -0.06190
     10 H1         -2.6402   -1.8973    0.0321 HC        1 <0>        0.03275
     11 H2         -3.2449   -2.1539   -1.6148 HC        1 <0>        0.03275
     12 H3         -2.8071   -0.5250   -1.0705 HC        1 <0>        0.03275
     13 H4         -0.7826   -3.6605   -0.4187 HC        1 <0>        0.03275
     14 H5          0.2495   -3.4792   -1.8471 HC        1 <0>        0.03275
     15 H6         -1.4681   -3.8807   -2.0267 HC        1 <0>        0.03275
     16 H7          0.4761    3.3148   -0.6522 HC        1 <0>        0.03325
     17 H8          0.7929    3.3994    1.0818 HC        1 <0>        0.03325
     18 H9         -0.8482    3.0806    0.5079 HC        1 <0>        0.03325
     19 H10         2.3827    1.4384   -0.7440 HC        1 <0>        0.03325
     20 H11         2.2566    0.0786    0.3881 HC        1 <0>        0.03325
     21 H12         2.5450    1.7073    0.9935 HC        1 <0>        0.03325
     22 H13         0.8684    0.9456   -2.4551 HC        1 <0>        0.03390
     23 H14        -0.3800    2.1545   -2.1852 HC        1 <0>        0.03390
     24 H15        -0.8269    0.5670   -2.8175 HC        1 <0>        0.03390
     25 H16         0.8977   -1.1442   -0.9911 HC        1 <0>        0.04039
     26 H17        -0.1642   -1.2973    0.3903 HC        1 <0>        0.04039
     27 H18        -1.0528   -1.4664   -2.5398 HC        1 <0>        0.04727
     28 H19         0.1956    1.0398    1.3629 HC        1 <0>        0.04285
     29 H20        -1.4130    0.7646   -0.4318 HC        1 <0>        0.04506
@<TRIPOS>BOND
     1    1    7 1
     2    2    7 1
     3    3    8 1
     4    4    8 1
     5    5    9 1
     6    6    7 1
     7    6    9 1
     8    8    9 1
     9    1   10 1
    10    1   11 1
    11    1   12 1
    12    2   13 1
    13    2   14 1
    14    2   15 1
    15    3   16 1
    16    3   17 1
    17    3   18 1
    18    4   19 1
    19    4   20 1
    20    4   21 1
    21    5   22 1
    22    5   23 1
    23    5   24 1
    24    6   25 1
    25    6   26 1
    26    7   27 1
    27    8   28 1
    28    9   29 1
@<TRIPOS>SUBSTRUCTURE
     1 <0>         1 GROUP 0 A     ****
