@<TRIPOS>MOLECULE
AlkEthOH_c1253
   20    19     1     0     0
SMALL
USER_CHARGES

@<TRIPOS>ATOM
      1 C1         -2.4688    1.8211    1.9477 CT        1 <0>       -0.09742
      2 C2          0.4644   -1.0207   -0.4925 CT        1 <0>       -0.11315
      3 C3         -1.4852    1.8002    0.7972 CT        1 <0>        0.13759
      4 C4          1.2334   -1.2222    0.8077 CT        1 <0>        0.13593
      5 C5         -0.2140    0.3462   -0.5740 CT        1 <0>        0.33042
      6 O1          1.8357   -2.5100    0.8151 OH        1 <0>       -0.60185
      7 O2         -0.8588    0.4231   -1.8428 OH        1 <0>       -0.62071
      8 O3         -1.1428    0.4523    0.5055 OS        1 <0>       -0.45269
      9 H1         -3.3818    1.2770    1.6905 HC        1 <0>        0.04415
     10 H2         -2.0271    1.3682    2.8414 HC        1 <0>        0.04415
     11 H3         -2.7334    2.8508    2.2104 HC        1 <0>        0.04415
     12 H4         -0.2858   -1.8170   -0.5881 HC        1 <0>        0.07283
     13 H5          1.1360   -1.1582   -1.3494 HC        1 <0>        0.07283
     14 H6         -0.5745    2.3460    1.0609 H1        1 <0>        0.03092
     15 H7         -1.9284    2.2523   -0.0951 H1        1 <0>        0.03092
     16 H8          2.0211   -0.4708    0.9237 H1        1 <0>        0.02943
     17 H9          0.5693   -1.1599    1.6749 H1        1 <0>        0.02943
     18 H10         0.5457    1.1353   -0.5080 H2        1 <0>        0.06811
     19 H11         2.3111   -2.5915    1.6575 HO        1 <0>        0.40300
     20 H12        -0.1706    0.3240   -2.5224 HO        1 <0>        0.41196
@<TRIPOS>BOND
     1    1    3 1
     2    2    4 1
     3    2    5 1
     4    3    8 1
     5    4    6 1
     6    5    7 1
     7    5    8 1
     8    1    9 1
     9    1   10 1
    10    1   11 1
    11    2   12 1
    12    2   13 1
    13    3   14 1
    14    3   15 1
    15    4   16 1
    16    4   17 1
    17    5   18 1
    18    6   19 1
    19    7   20 1
@<TRIPOS>SUBSTRUCTURE
     1 <0>         1 GROUP 0 A     ****
