@<TRIPOS>MOLECULE
AlkEthOH_c1033
   30    29     1     0     0
SMALL
USER_CHARGES

@<TRIPOS>ATOM
      1 C1          1.4631    0.8455   -3.0347 CT        1 <0>       -0.09022
      2 C2         -0.9858   -2.9059    1.3121 CT        1 <0>       -0.13267
      3 C3          1.1544    1.6239    1.3020 CT        1 <0>       -0.08887
      4 C4         -1.3224    1.5565    1.0671 CT        1 <0>       -0.08887
      5 C5          1.4261    0.5585   -1.5401 CT        1 <0>       -0.07678
      6 C6          0.1012    1.0187   -0.9213 CT        1 <0>       -0.06934
      7 C7          0.0185   -0.6027    1.1281 CT        1 <0>       -0.06413
      8 C8         -1.1096   -1.5342    0.6552 CT        1 <0>        0.14084
      9 C9         -0.0120    0.8719    0.6211 CT        1 <0>       -0.04398
     10 O1         -1.0396   -1.7134   -0.7540 OH        1 <0>       -0.59889
     11 H1          0.6319    0.3415   -3.5376 HC        1 <0>        0.03014
     12 H2          1.3773    1.9193   -3.2302 HC        1 <0>        0.03014
     13 H3          2.3968    0.4875   -3.4804 HC        1 <0>        0.03014
     14 H4         -0.0175   -3.3664    1.0941 HC        1 <0>        0.04167
     15 H5         -1.7809   -3.5774    0.9695 HC        1 <0>        0.04167
     16 H6         -1.0922   -2.8218    2.3991 HC        1 <0>        0.04167
     17 H7          2.1205    1.1855    1.0257 HC        1 <0>        0.03333
     18 H8          1.0724    1.5794    2.3938 HC        1 <0>        0.03333
     19 H9          1.1825    2.6786    1.0093 HC        1 <0>        0.03333
     20 H10        -2.1944    1.0681    0.6166 HC        1 <0>        0.03333
     21 H11        -1.3422    2.6101    0.7668 HC        1 <0>        0.03333
     22 H12        -1.4547    1.5129    2.1529 HC        1 <0>        0.03333
     23 H13         2.2675    1.0749   -1.0671 HC        1 <0>        0.03963
     24 H14         1.5750   -0.5146   -1.3892 HC        1 <0>        0.03963
     25 H15        -0.7264    0.4850   -1.4039 HC        1 <0>        0.04664
     26 H16        -0.0463    2.0757   -1.1846 HC        1 <0>        0.04664
     27 H17         0.9827   -1.0502    0.8537 HC        1 <0>        0.04847
     28 H18        -0.0017   -0.5795    2.2269 HC        1 <0>        0.04847
     29 H19        -2.0893   -1.1135    0.8993 H1        1 <0>        0.03298
     30 H20        -1.7788   -2.2929   -0.9987 HO        1 <0>        0.39504
@<TRIPOS>BOND
     1    1    5 1
     2    2    8 1
     3    3    9 1
     4    4    9 1
     5    5    6 1
     6    6    9 1
     7    7    8 1
     8    7    9 1
     9    8   10 1
    10    1   11 1
    11    1   12 1
    12    1   13 1
    13    2   14 1
    14    2   15 1
    15    2   16 1
    16    3   17 1
    17    3   18 1
    18    3   19 1
    19    4   20 1
    20    4   21 1
    21    4   22 1
    22    5   23 1
    23    5   24 1
    24    6   25 1
    25    6   26 1
    26    7   27 1
    27    7   28 1
    28    8   29 1
    29   10   30 1
@<TRIPOS>SUBSTRUCTURE
     1 <0>         1 GROUP 0 A     ****
