@<TRIPOS>MOLECULE
AlkEthOH_c1141
   21    20     1     0     0
SMALL
USER_CHARGES

@<TRIPOS>ATOM
      1 C1          0.4086   -1.0630   -0.1228 CT        1 <0>       -0.09158
      2 C2         -6.3798   -3.6997   -0.5561 CT        1 <0>       -0.09670
      3 C3         -0.5745   -2.0349    0.5099 CT        1 <0>       -0.07926
      4 C4         -1.9307   -1.9925   -0.1885 CT        1 <0>       -0.08371
      5 C5         -5.0930   -3.8319    0.2302 CT        1 <0>        0.13048
      6 C6         -2.9047   -2.9950    0.4140 CT        1 <0>        0.13051
      7 O1         -4.1377   -2.9159   -0.2877 OS        1 <0>       -0.42461
      8 H1          0.0248   -0.0384   -0.0880 HC        1 <0>        0.03429
      9 H2          1.3724   -1.0868    0.3957 HC        1 <0>        0.03429
     10 H3          0.5802   -1.3260   -1.1712 HC        1 <0>        0.03429
     11 H4         -6.7858   -2.6877   -0.4726 HC        1 <0>        0.04458
     12 H5         -6.2109   -3.9268   -1.6138 HC        1 <0>        0.04458
     13 H6         -7.1285   -4.4117   -0.1933 HC        1 <0>        0.04458
     14 H7         -0.1609   -3.0488    0.4588 HC        1 <0>        0.03782
     15 H8         -0.6936   -1.7861    1.5708 HC        1 <0>        0.03782
     16 H9         -2.3601   -0.9850   -0.1238 HC        1 <0>        0.05435
     17 H10        -1.8129   -2.1993   -1.2596 HC        1 <0>        0.05435
     18 H11        -4.6922   -4.8462    0.1426 H1        1 <0>        0.02294
     19 H12        -5.2633   -3.6039    1.2866 H1        1 <0>        0.02294
     20 H13        -2.5190   -4.0157    0.3261 H1        1 <0>        0.02402
     21 H14        -3.0903   -2.7735    1.4699 H1        1 <0>        0.02402
@<TRIPOS>BOND
     1    1    3 1
     2    2    5 1
     3    3    4 1
     4    4    6 1
     5    5    7 1
     6    6    7 1
     7    1    8 1
     8    1    9 1
     9    1   10 1
    10    2   11 1
    11    2   12 1
    12    2   13 1
    13    3   14 1
    14    3   15 1
    15    4   16 1
    16    4   17 1
    17    5   18 1
    18    5   19 1
    19    6   20 1
    20    6   21 1
@<TRIPOS>SUBSTRUCTURE
     1 <0>         1 GROUP 0 A     ****
