@<TRIPOS>MOLECULE
AlkEthOH_c384
   34    33     1     0     0
SMALL
USER_CHARGES

@<TRIPOS>ATOM
      1 C1          1.4775   -2.0194   -1.4816 CT        1 <0>       -0.09093
      2 C2         -0.8910   -2.7445   -1.1620 CT        1 <0>       -0.09093
      3 C3          0.5788    1.2465   -2.2329 CT        1 <0>       -0.10328
      4 C4          1.9217    0.8707   -0.1563 CT        1 <0>       -0.10328
      5 C5         -1.8084    1.8671    1.7351 CT        1 <0>       -0.13217
      6 C6          0.3583    3.0946    1.9149 CT        1 <0>       -0.13217
      7 C7         -0.2724   -0.3947   -0.5266 CT        1 <0>       -0.09626
      8 C8          0.0204   -1.5586   -1.5011 CT        1 <0>       -0.06364
      9 C9          0.5076    0.9241   -0.7347 CT        1 <0>        0.19341
     10 C10        -0.3380    1.8745    1.3108 CT        1 <0>        0.36208
     11 O1          0.3339    0.7286    1.8346 OH        1 <0>       -0.62177
     12 O2         -0.1778    2.0061   -0.1039 OS        1 <0>       -0.44490
     13 H1          1.7794   -2.3458   -0.4826 HC        1 <0>        0.03252
     14 H2          2.1485   -1.2002   -1.7625 HC        1 <0>        0.03252
     15 H3          1.6435   -2.8450   -2.1816 HC        1 <0>        0.03252
     16 H4         -0.6936   -3.1107   -0.1488 HC        1 <0>        0.03252
     17 H5         -1.9454   -2.4518   -1.2086 HC        1 <0>        0.03252
     18 H6         -0.7388   -3.5753   -1.8595 HC        1 <0>        0.03252
     19 H7         -0.4180    1.2934   -2.6838 HC        1 <0>        0.04429
     20 H8          1.0815    2.2057   -2.4029 HC        1 <0>        0.04429
     21 H9          1.1668    0.4916   -2.7676 HC        1 <0>        0.04429
     22 H10         1.9093    0.6421    0.9145 HC        1 <0>        0.04429
     23 H11         2.4147    1.8458   -0.2463 HC        1 <0>        0.04429
     24 H12         2.5383    0.1254   -0.6687 HC        1 <0>        0.04429
     25 H13        -2.3349    1.0024    1.3166 HC        1 <0>        0.04841
     26 H14        -1.9076    1.8562    2.8254 HC        1 <0>        0.04841
     27 H15        -2.3331    2.7543    1.3648 HC        1 <0>        0.04841
     28 H16         1.4147    3.1168    1.6213 HC        1 <0>        0.04841
     29 H17         0.3293    3.0719    3.0097 HC        1 <0>        0.04841
     30 H18        -0.0940    4.0279    1.5627 HC        1 <0>        0.04841
     31 H19        -1.3464   -0.1708   -0.5872 HC        1 <0>        0.05692
     32 H20        -0.0870   -0.7533    0.4955 HC        1 <0>        0.05692
     33 H21        -0.2283   -1.2440   -2.5215 HC        1 <0>        0.04748
     34 H22         0.2728    0.7566    2.8041 HO        1 <0>        0.41120
@<TRIPOS>BOND
     1    1    8 1
     2    2    8 1
     3    3    9 1
     4    4    9 1
     5    5   10 1
     6    6   10 1
     7    7    8 1
     8    7    9 1
     9    9   12 1
    10   10   11 1
    11   10   12 1
    12    1   13 1
    13    1   14 1
    14    1   15 1
    15    2   16 1
    16    2   17 1
    17    2   18 1
    18    3   19 1
    19    3   20 1
    20    3   21 1
    21    4   22 1
    22    4   23 1
    23    4   24 1
    24    5   25 1
    25    5   26 1
    26    5   27 1
    27    6   28 1
    28    6   29 1
    29    6   30 1
    30    7   31 1
    31    7   32 1
    32    8   33 1
    33   11   34 1
@<TRIPOS>SUBSTRUCTURE
     1 <0>         1 GROUP 0 A     ****
