@<TRIPOS>MOLECULE
AlkEthOH_c454
   26    25     1     0     0
SMALL
USER_CHARGES

@<TRIPOS>ATOM
      1 C1          2.1302    0.2252    1.5616 CT        1 <0>       -0.09072
      2 C2         -0.3503    0.1858    1.2321 CT        1 <0>       -0.09066
      3 C3          2.4902   -4.3395    0.6015 CT        1 <0>       -0.09066
      4 C4          3.3016   -4.8483    2.9138 CT        1 <0>       -0.09066
      5 C5          0.9279   -1.9797    1.6658 CT        1 <0>       -0.07452
      6 C6          2.0638   -2.6699    2.4311 CT        1 <0>       -0.07452
      7 C7          0.8253   -0.4701    1.9577 CT        1 <0>       -0.06725
      8 C8          2.2038   -4.1672    2.0953 CT        1 <0>       -0.06725
      9 H1          2.3201    0.1147    0.4886 HC        1 <0>        0.03291
     10 H2          2.0831    1.2968    1.7821 HC        1 <0>        0.03291
     11 H3          2.9849   -0.1955    2.1022 HC        1 <0>        0.03291
     12 H4         -0.2593    0.0736    0.1465 HC        1 <0>        0.03291
     13 H5         -0.3972    1.2567    1.4579 HC        1 <0>        0.03291
     14 H6         -1.3041   -0.2519    1.5420 HC        1 <0>        0.03291
     15 H7          3.4341   -3.8562    0.3275 HC        1 <0>        0.03291
     16 H8          1.6942   -3.9001   -0.0092 HC        1 <0>        0.03291
     17 H9          2.5717   -5.4000    0.3404 HC        1 <0>        0.03291
     18 H10         4.2774   -4.3852    2.7321 HC        1 <0>        0.03291
     19 H11         3.0914   -4.7929    3.9862 HC        1 <0>        0.03291
     20 H12         3.3779   -5.9096    2.6535 HC        1 <0>        0.03291
     21 H13         1.0913   -2.1204    0.5897 HC        1 <0>        0.03985
     22 H14        -0.0280   -2.4594    1.9075 HC        1 <0>        0.03985
     23 H15         1.9075   -2.5556    3.5105 HC        1 <0>        0.03985
     24 H16         3.0082   -2.1649    2.1914 HC        1 <0>        0.03985
     25 H17         0.6847   -0.3290    3.0369 HC        1 <0>        0.04596
     26 H18         1.2520   -4.6676    2.3140 HC        1 <0>        0.04596
@<TRIPOS>BOND
     1    1    7 1
     2    2    7 1
     3    3    8 1
     4    4    8 1
     5    5    6 1
     6    5    7 1
     7    6    8 1
     8    1    9 1
     9    1   10 1
    10    1   11 1
    11    2   12 1
    12    2   13 1
    13    2   14 1
    14    3   15 1
    15    3   16 1
    16    3   17 1
    17    4   18 1
    18    4   19 1
    19    4   20 1
    20    5   21 1
    21    5   22 1
    22    6   23 1
    23    6   24 1
    24    7   25 1
    25    8   26 1
@<TRIPOS>SUBSTRUCTURE
     1 <0>         1 GROUP 0 A     ****
