@<TRIPOS>MOLECULE
AlkEthOH_r844
   17    17     1     0     0
SMALL
USER_CHARGES

@<TRIPOS>ATOM
      1 C1          0.3280    0.3487    0.9833 CT        1 <0>       -0.10911
      2 C2         -0.8102    0.7991    1.8689 CT        1 <0>       -0.10649
      3 C3          0.9489   -0.7550    1.8220 CT        1 <0>        0.13993
      4 C4         -0.1871    0.7022    3.2500 CT        1 <0>        0.33289
      5 C5          2.4275   -0.9590    1.5538 CT        1 <0>       -0.09844
      6 O1          0.7496   -0.3835    3.1965 OS        1 <0>       -0.46042
      7 O2          0.4765    1.9259    3.5460 OH        1 <0>       -0.62900
      8 H1          0.0001    0.0001   -0.0000 HC        1 <0>        0.06011
      9 H2          1.0320    1.1765    0.8345 HC        1 <0>        0.06011
     10 H3         -1.1700    1.8003    1.6161 HC        1 <0>        0.06626
     11 H4         -1.6400    0.0882    1.7797 HC        1 <0>        0.06626
     12 H5          0.4116   -1.6976    1.6628 H1        1 <0>        0.04683
     13 H6         -0.9386    0.5108    4.0225 H2        1 <0>        0.06627
     14 H7          2.9740   -0.0259    1.7092 HC        1 <0>        0.04612
     15 H8          2.5849   -1.2871    0.5238 HC        1 <0>        0.04612
     16 H9          2.8345   -1.7172    2.2269 HC        1 <0>        0.04612
     17 H10         0.8604    1.8270    4.4316 HO        1 <0>        0.42644
@<TRIPOS>BOND
     1    1    2 1
     2    1    3 1
     3    2    4 1
     4    3    5 1
     5    3    6 1
     6    4    6 1
     7    4    7 1
     8    1    8 1
     9    1    9 1
    10    2   10 1
    11    2   11 1
    12    3   12 1
    13    4   13 1
    14    5   14 1
    15    5   15 1
    16    5   16 1
    17    7   17 1
@<TRIPOS>SUBSTRUCTURE
     1 <0>         1 GROUP 0 A     ****
