@<TRIPOS>MOLECULE
AlkEthOH_c1110
   19    18     1     0     0
SMALL
USER_CHARGES

@<TRIPOS>ATOM
      1 C1          0.5892   -2.3047    1.6992 CT        1 <0>       -0.09338
      2 C2         -1.1868    1.1794   -2.2351 CT        1 <0>        0.12140
      3 C3          0.3577   -1.3990    0.4998 CT        1 <0>       -0.07584
      4 C4          0.3458    0.0751    0.9070 CT        1 <0>       -0.10843
      5 C5          0.1510    1.0116   -0.2879 CT        1 <0>        0.33278
      6 O1          0.1987    2.3466    0.2096 OH        1 <0>       -0.62755
      7 O2         -1.1061    0.7121   -0.8956 OS        1 <0>       -0.41743
      8 H1          1.5334   -2.0625    2.1974 HC        1 <0>        0.03389
      9 H2         -0.2205   -2.2038    2.4289 HC        1 <0>        0.03389
     10 H3          0.6318   -3.3512    1.3814 HC        1 <0>        0.03389
     11 H4         -2.1645    0.9257   -2.6520 H1        1 <0>        0.03690
     12 H5         -0.3943    0.7194   -2.8308 H1        1 <0>        0.03690
     13 H6         -1.0612    2.2647   -2.2412 H1        1 <0>        0.03690
     14 H7         -0.5936   -1.6702    0.0281 HC        1 <0>        0.04942
     15 H8          1.1483   -1.5731   -0.2393 HC        1 <0>        0.04942
     16 H9         -0.4603    0.2419    1.6336 HC        1 <0>        0.05410
     17 H10         1.2810    0.3310    1.4207 HC        1 <0>        0.05410
     18 H11         0.9698    0.8650   -1.0037 H2        1 <0>        0.03714
     19 H12         1.0703    2.4691    0.6223 HO        1 <0>        0.41190
@<TRIPOS>BOND
     1    1    3 1
     2    2    7 1
     3    3    4 1
     4    4    5 1
     5    5    6 1
     6    5    7 1
     7    1    8 1
     8    1    9 1
     9    1   10 1
    10    2   11 1
    11    2   12 1
    12    2   13 1
    13    3   14 1
    14    3   15 1
    15    4   16 1
    16    4   17 1
    17    5   18 1
    18    6   19 1
@<TRIPOS>SUBSTRUCTURE
     1 <0>         1 GROUP 0 A     ****
