@<TRIPOS>MOLECULE
AlkEthOH_r1113
   18    18     1     0     0
SMALL
USER_CHARGES

@<TRIPOS>ATOM
      1 C1          0.1369    1.1400   -0.6393 CT        1 <0>        0.12655
      2 C2          0.2283   -1.1270   -0.6962 CT        1 <0>        0.34619
      3 C3         -0.3971    0.5770    0.6609 CT        1 <0>        0.31857
      4 C4          1.5721   -1.7814   -0.9540 CT        1 <0>       -0.12147
      5 C5          0.0598    1.3600    1.8799 CT        1 <0>       -0.11167
      6 O1          0.0770    0.0250   -1.5347 OS        1 <0>       -0.44075
      7 O2          0.1445   -0.7449    0.6823 OS        1 <0>       -0.47321
      8 O3         -1.8215    0.5513    0.6010 OH        1 <0>       -0.60997
      9 H1         -0.4584    1.9636   -1.0431 H1        1 <0>        0.07130
     10 H2          1.1866    1.4446   -0.5646 H1        1 <0>        0.07130
     11 H3         -0.5849   -1.8255   -0.9197 H2        1 <0>        0.07310
     12 H4          2.3829   -1.0843   -0.7309 HC        1 <0>        0.05262
     13 H5          1.6519   -2.0851   -2.0002 HC        1 <0>        0.05262
     14 H6          1.6904   -2.6663   -0.3243 HC        1 <0>        0.05262
     15 H7         -0.3502    0.9161    2.7889 HC        1 <0>        0.05663
     16 H8         -0.2793    2.3953    1.8121 HC        1 <0>        0.05663
     17 H9          1.1493    1.3519    1.9468 HC        1 <0>        0.05663
     18 H10        -2.1262    0.1868    1.4462 HO        1 <0>        0.42231
@<TRIPOS>BOND
     1    1    3 1
     2    1    6 1
     3    2    4 1
     4    2    6 1
     5    2    7 1
     6    3    5 1
     7    3    7 1
     8    3    8 1
     9    1    9 1
    10    1   10 1
    11    2   11 1
    12    4   12 1
    13    4   13 1
    14    4   14 1
    15    5   15 1
    16    5   16 1
    17    5   17 1
    18    8   18 1
@<TRIPOS>SUBSTRUCTURE
     1 <0>         1 GROUP 0 A     ****
