@<TRIPOS>MOLECULE
AlkEthOH_c829
   34    33     1     0     0
SMALL
USER_CHARGES

@<TRIPOS>ATOM
      1 C1          3.0305   -0.5424   -2.4930 CT        1 <0>       -0.12637
      2 C2          0.4891    2.5296    0.4129 CT        1 <0>       -0.08661
      3 C3         -0.7588    0.8841    1.8073 CT        1 <0>       -0.08661
      4 C4          1.5520    0.3539    1.0761 CT        1 <0>       -0.08661
      5 C5         -0.9254   -1.5836   -2.1467 CT        1 <0>       -0.10580
      6 C6         -0.5294   -2.1113    0.2554 CT        1 <0>       -0.10580
      7 C7         -0.3895    0.3243   -0.6044 CT        1 <0>       -0.08520
      8 C8          1.5865   -1.0206   -2.5017 CT        1 <0>        0.32787
      9 C9          0.2416    1.0314    0.6354 CT        1 <0>       -0.04471
     10 C10        -0.1401   -1.1793   -0.8883 CT        1 <0>        0.16504
     11 O1          1.4395   -2.0909   -3.4301 OH        1 <0>       -0.62318
     12 O2          1.2423   -1.4029   -1.1721 OS        1 <0>       -0.45082
     13 H1          3.7046   -1.3426   -2.1716 HC        1 <0>        0.05109
     14 H2          3.3440   -0.2374   -3.4978 HC        1 <0>        0.05109
     15 H3          3.1530    0.3222   -1.8333 HC        1 <0>        0.05109
     16 H4          1.1943    2.6935   -0.4104 HC        1 <0>        0.03443
     17 H5          0.9150    2.9975    1.3073 HC        1 <0>        0.03443
     18 H6         -0.4311    3.0608    0.1519 HC        1 <0>        0.03443
     19 H7         -0.9743   -0.1707    2.0126 HC        1 <0>        0.03443
     20 H8         -1.7087    1.3831    1.5835 HC        1 <0>        0.03443
     21 H9         -0.3638    1.3281    2.7283 HC        1 <0>        0.03443
     22 H10         1.4013   -0.7196    1.2418 HC        1 <0>        0.03443
     23 H11         1.9402    0.7595    2.0118 HC        1 <0>        0.03443
     24 H12         2.3303    0.4611    0.3124 HC        1 <0>        0.03443
     25 H13        -0.6717   -0.9345   -2.9928 HC        1 <0>        0.04605
     26 H14        -0.7234   -2.6213   -2.4318 HC        1 <0>        0.04605
     27 H15        -2.0044   -1.4717   -1.9884 HC        1 <0>        0.04605
     28 H16         0.0147   -1.8493    1.1712 HC        1 <0>        0.04605
     29 H17        -0.3084   -3.1569    0.0197 HC        1 <0>        0.04605
     30 H18        -1.5870   -2.0103    0.5147 HC        1 <0>        0.04605
     31 H19        -0.0320    0.8674   -1.4921 HC        1 <0>        0.04129
     32 H20        -1.4751    0.4945   -0.5726 HC        1 <0>        0.04129
     33 H21         0.9405   -0.1972   -2.8273 H2        1 <0>        0.07598
     34 H22         2.0268   -2.8149   -3.1555 HO        1 <0>        0.41080
@<TRIPOS>BOND
     1    1    8 1
     2    2    9 1
     3    3    9 1
     4    4    9 1
     5    5   10 1
     6    6   10 1
     7    7    9 1
     8    7   10 1
     9    8   11 1
    10    8   12 1
    11   10   12 1
    12    1   13 1
    13    1   14 1
    14    1   15 1
    15    2   16 1
    16    2   17 1
    17    2   18 1
    18    3   19 1
    19    3   20 1
    20    3   21 1
    21    4   22 1
    22    4   23 1
    23    4   24 1
    24    5   25 1
    25    5   26 1
    26    5   27 1
    27    6   28 1
    28    6   29 1
    29    6   30 1
    30    7   31 1
    31    7   32 1
    32    8   33 1
    33   11   34 1
@<TRIPOS>SUBSTRUCTURE
     1 <0>         1 GROUP 0 A     ****
