@<TRIPOS>MOLECULE
AlkEthOH_c950
   22    21     1     0     0
SMALL
USER_CHARGES

@<TRIPOS>ATOM
      1 C1         -0.0373   -0.7559    0.7415 CT        1 <0>       -0.08966
      2 C2         -3.5911   -2.3141    0.3548 CT        1 <0>       -0.12157
      3 C3         -3.0744    1.0273   -2.2242 CT        1 <0>        0.11563
      4 C4         -1.4516   -1.2223    1.0682 CT        1 <0>       -0.06252
      5 C5         -2.2785   -1.0063   -1.3560 CT        1 <0>        0.10045
      6 C6         -2.1889   -1.8961   -0.1080 CT        1 <0>        0.15409
      7 O1         -1.4744   -3.0845   -0.4593 OH        1 <0>       -0.59815
      8 O2         -3.0152    0.1761   -1.0866 OS        1 <0>       -0.41553
      9 H1          0.5550   -1.5972    0.3666 HC        1 <0>        0.03680
     10 H2          0.4709   -0.3664    1.6284 HC        1 <0>        0.03680
     11 H3         -0.0393    0.0214   -0.0286 HC        1 <0>        0.03680
     12 H4         -4.1432   -2.7974   -0.4594 HC        1 <0>        0.04662
     13 H5         -3.5299   -3.0513    1.1638 HC        1 <0>        0.04662
     14 H6         -4.1760   -1.4593    0.7092 HC        1 <0>        0.04662
     15 H7         -3.6478    1.9247   -1.9794 H1        1 <0>        0.03391
     16 H8         -3.5465    0.4955   -3.0541 H1        1 <0>        0.03391
     17 H9         -2.0586    1.3128   -2.5078 H1        1 <0>        0.03391
     18 H10        -2.0289   -0.3680    1.4416 HC        1 <0>        0.05272
     19 H11        -1.3723   -1.9396    1.8957 HC        1 <0>        0.05272
     20 H12        -2.7688   -1.5446   -2.1760 H1        1 <0>        0.03163
     21 H13        -1.2818   -0.7317   -1.7184 H1        1 <0>        0.03163
     22 H14        -1.9790   -3.5034   -1.1716 HO        1 <0>        0.39657
@<TRIPOS>BOND
     1    1    4 1
     2    2    6 1
     3    3    8 1
     4    4    6 1
     5    5    6 1
     6    5    8 1
     7    6    7 1
     8    1    9 1
     9    1   10 1
    10    1   11 1
    11    2   12 1
    12    2   13 1
    13    2   14 1
    14    3   15 1
    15    3   16 1
    16    3   17 1
    17    4   18 1
    18    4   19 1
    19    5   20 1
    20    5   21 1
    21    7   22 1
@<TRIPOS>SUBSTRUCTURE
     1 <0>         1 GROUP 0 A     ****
