@<TRIPOS>MOLECULE
AlkEthOH_r10
   17    17     1     0     0
SMALL
USER_CHARGES

@<TRIPOS>ATOM
      1 C1         -0.3328   -0.8846   -0.5539 CT        1 <0>       -0.07538
      2 C2          0.8121   -1.8917   -0.6855 CT        1 <0>       -0.11240
      3 C3         -0.7600   -0.5164   -1.9766 CT        1 <0>       -0.11240
      4 C4          0.8135   -2.3149   -2.1507 CT        1 <0>        0.13624
      5 C5          0.3334   -1.0695   -2.8845 CT        1 <0>        0.13624
      6 O1         -0.1119   -3.3799   -2.3280 OH        1 <0>       -0.60178
      7 O2          1.3850   -0.1170   -2.9803 OH        1 <0>       -0.60178
      8 H1         -1.1761   -1.3153   -0.0027 HC        1 <0>        0.04484
      9 H2         -0.0000    0.0001   -0.0000 HC        1 <0>        0.04484
     10 H3          1.7571   -1.3947   -0.4364 HC        1 <0>        0.05046
     11 H4          0.6765   -2.7350   -0.0008 HC        1 <0>        0.05046
     12 H5         -1.7169   -1.0022   -2.2007 HC        1 <0>        0.05046
     13 H6         -0.8912    0.5653   -2.0818 HC        1 <0>        0.05046
     14 H7          1.8071   -2.6509   -2.4629 H1        1 <0>        0.06660
     15 H8         -0.0533   -1.2746   -3.8876 H1        1 <0>        0.06660
     16 H9          0.1846   -4.1058   -1.7559 HO        1 <0>        0.40327
     17 H10         0.9975    0.6903   -3.3547 HO        1 <0>        0.40327
@<TRIPOS>BOND
     1    1    2 1
     2    1    3 1
     3    2    4 1
     4    3    5 1
     5    4    5 1
     6    4    6 1
     7    5    7 1
     8    1    8 1
     9    1    9 1
    10    2   10 1
    11    2   11 1
    12    3   12 1
    13    3   13 1
    14    4   14 1
    15    5   15 1
    16    6   16 1
    17    7   17 1
@<TRIPOS>SUBSTRUCTURE
     1 <0>         1 GROUP 0 A     ****
