@<TRIPOS>MOLECULE
AlkEthOH_c783
   20    19     1     0     0
SMALL
USER_CHARGES

@<TRIPOS>ATOM
      1 C1         -0.6062    0.9264    0.6648 CT        1 <0>       -0.13123
      2 C2         -0.1516   -2.6118    5.6097 CT        1 <0>       -0.12773
      3 C3         -0.8331   -0.7088    2.5635 CT        1 <0>        0.13802
      4 C4         -0.1831    0.5832    2.0850 CT        1 <0>        0.13793
      5 C5         -0.9948   -2.1633    4.4256 CT        1 <0>        0.33864
      6 O1         -0.5895    1.6384    2.9552 OH        1 <0>       -0.58390
      7 O2         -2.3469   -1.9862    4.8372 OH        1 <0>       -0.62724
      8 O3         -0.4246   -0.9632    3.9033 OS        1 <0>       -0.41367
      9 H1         -1.6967    1.0050    0.5978 HC        1 <0>        0.04329
     10 H2         -0.1694    1.8751    0.3381 HC        1 <0>        0.04329
     11 H3         -0.3043    0.1399   -0.0355 HC        1 <0>        0.04329
     12 H4         -0.1517   -1.8529    6.3985 HC        1 <0>        0.05423
     13 H5         -0.5541   -3.5333    6.0453 HC        1 <0>        0.05423
     14 H6          0.8788   -2.8156    5.3023 HC        1 <0>        0.05423
     15 H7         -1.9253   -0.6300    2.5545 H1        1 <0>        0.04886
     16 H8         -0.5228   -1.5580    1.9467 H1        1 <0>        0.04886
     17 H9          0.9076    0.5046    2.1521 H1        1 <0>        0.04514
     18 H10        -0.9730   -2.9441    3.6568 H2        1 <0>        0.02653
     19 H11        -0.1450    2.4403    2.6406 HO        1 <0>        0.39530
     20 H12        -2.6759   -2.8358    5.1755 HO        1 <0>        0.41193
@<TRIPOS>BOND
     1    1    4 1
     2    2    5 1
     3    3    4 1
     4    3    8 1
     5    4    6 1
     6    5    7 1
     7    5    8 1
     8    1    9 1
     9    1   10 1
    10    1   11 1
    11    2   12 1
    12    2   13 1
    13    2   14 1
    14    3   15 1
    15    3   16 1
    16    4   17 1
    17    5   18 1
    18    6   19 1
    19    7   20 1
@<TRIPOS>SUBSTRUCTURE
     1 <0>         1 GROUP 0 A     ****
