@<TRIPOS>MOLECULE
AlkEthOH_r351
   30    30     1     0     0
SMALL
USER_CHARGES

@<TRIPOS>ATOM
      1 C1          2.0747   -0.1296    0.8540 CT        1 <0>       -0.07732
      2 C2          1.2220    0.5552    1.9218 CT        1 <0>       -0.06160
      3 C3          2.2143    0.6034   -0.4798 CT        1 <0>       -0.06160
      4 C4         -0.2305    0.8927    1.5772 CT        1 <0>       -0.12525
      5 C5          0.9369    0.9555   -1.2453 CT        1 <0>       -0.12525
      6 C6         -1.0733   -0.2008    0.8982 CT        1 <0>        0.36225
      7 C7         -0.1261   -0.1462   -1.4007 CT        1 <0>        0.36225
      8 C8         -1.3698   -1.3152    1.9124 CT        1 <0>       -0.11671
      9 C9          0.3904   -1.2148   -2.3752 CT        1 <0>       -0.11671
     10 O1         -0.4363   -0.8524   -0.2001 OS        1 <0>       -0.40070
     11 O2         -2.3212    0.3936    0.5279 OH        1 <0>       -0.58578
     12 O3         -1.2811    0.4586   -1.9903 OH        1 <0>       -0.58578
     13 H1          3.0850   -0.2468    1.2692 HC        1 <0>        0.04813
     14 H2          1.7286   -1.1556    0.6906 HC        1 <0>        0.04813
     15 H3          1.2259   -0.0861    2.8124 HC        1 <0>        0.03527
     16 H4          1.7214    1.4839    2.2268 HC        1 <0>        0.03527
     17 H5          2.7741    1.5323   -0.3114 HC        1 <0>        0.03527
     18 H6          2.8508   -0.0089   -1.1312 HC        1 <0>        0.03527
     19 H7         -0.7356    1.1956    2.5063 HC        1 <0>        0.04910
     20 H8         -0.2633    1.8133    0.9886 HC        1 <0>        0.04910
     21 H9          0.4879    1.8545   -0.8150 HC        1 <0>        0.04910
     22 H10         1.2293    1.3016   -2.2477 HC        1 <0>        0.04910
     23 H11        -1.9648   -2.0883    1.4352 HC        1 <0>        0.05095
     24 H12        -1.9190   -0.9012    2.7528 HC        1 <0>        0.05095
     25 H13        -0.4348   -1.7413    2.2637 HC        1 <0>        0.05095
     26 H14        -0.3583   -1.9935   -2.4866 HC        1 <0>        0.05095
     27 H15         1.3075   -1.6459   -1.9849 HC        1 <0>        0.05095
     28 H16         0.5858   -0.7580   -3.3409 HC        1 <0>        0.05095
     29 H17        -2.7259    0.7070    1.3496 HO        1 <0>        0.39638
     30 H18        -0.9951    0.8112   -2.8454 HO        1 <0>        0.39638
@<TRIPOS>BOND
     1    1    2 1
     2    1    3 1
     3    2    4 1
     4    3    5 1
     5    4    6 1
     6    5    7 1
     7    6    8 1
     8    6   10 1
     9    6   11 1
    10    7    9 1
    11    7   10 1
    12    7   12 1
    13    1   13 1
    14    1   14 1
    15    2   15 1
    16    2   16 1
    17    3   17 1
    18    3   18 1
    19    4   19 1
    20    4   20 1
    21    5   21 1
    22    5   22 1
    23    8   23 1
    24    8   24 1
    25    8   25 1
    26    9   26 1
    27    9   27 1
    28    9   28 1
    29   11   29 1
    30   12   30 1
@<TRIPOS>SUBSTRUCTURE
     1 <0>         1 GROUP 0 A     ****
