@<TRIPOS>MOLECULE
AlkEthOH_c747
   26    25     1     0     0
SMALL
USER_CHARGES

@<TRIPOS>ATOM
      1 C1          0.4755    0.8174   -0.5531 CT        1 <0>       -0.10811
      2 C2         -1.5712    2.5864   -2.9929 CT        1 <0>       -0.13013
      3 C3         -2.3145    0.5865   -4.2897 CT        1 <0>       -0.13013
      4 C4          1.4087   -0.7635   -2.2846 CT        1 <0>       -0.08645
      5 C5          1.4726   -1.1380   -3.7611 CT        1 <0>        0.13463
      6 C6          0.5699    0.4916   -2.0374 CT        1 <0>        0.15051
      7 C7         -1.1337    1.2375   -3.5683 CT        1 <0>        0.34909
      8 O1          2.2530   -2.3176   -3.9010 OH        1 <0>       -0.60931
      9 O2         -0.1165    1.4259   -4.5525 OH        1 <0>       -0.62997
     10 O3         -0.7469    0.3091   -2.5505 OS        1 <0>       -0.42223
     11 H1          0.0379   -0.0129    0.0092 HC        1 <0>        0.04202
     12 H2         -0.1318    1.7136   -0.3845 HC        1 <0>        0.04202
     13 H3          1.4697    1.0302   -0.1457 HC        1 <0>        0.04202
     14 H4         -0.7444    3.0780   -2.4687 HC        1 <0>        0.05117
     15 H5         -1.9459    3.2510   -3.7781 HC        1 <0>        0.05117
     16 H6         -2.3715    2.4628   -2.2553 HC        1 <0>        0.05117
     17 H7         -2.0194   -0.3828   -4.7094 HC        1 <0>        0.05117
     18 H8         -2.6654    1.2044   -5.1233 HC        1 <0>        0.05117
     19 H9         -3.1483    0.4008   -3.6042 HC        1 <0>        0.05117
     20 H10         2.4274   -0.6206   -1.9031 HC        1 <0>        0.05740
     21 H11         0.9913   -1.6145   -1.7307 HC        1 <0>        0.05740
     22 H12         0.4742   -1.3353   -4.1636 H1        1 <0>        0.03227
     23 H13         1.9417   -0.3399   -4.3452 H1        1 <0>        0.03227
     24 H14         1.0115    1.3445   -2.5644 H1        1 <0>        0.06093
     25 H15         2.2742   -2.5287   -4.8484 HO        1 <0>        0.39631
     26 H16        -0.4787    1.9825   -5.2621 HO        1 <0>        0.41244
@<TRIPOS>BOND
     1    1    6 1
     2    2    7 1
     3    3    7 1
     4    4    5 1
     5    4    6 1
     6    5    8 1
     7    6   10 1
     8    7    9 1
     9    7   10 1
    10    1   11 1
    11    1   12 1
    12    1   13 1
    13    2   14 1
    14    2   15 1
    15    2   16 1
    16    3   17 1
    17    3   18 1
    18    3   19 1
    19    4   20 1
    20    4   21 1
    21    5   22 1
    22    5   23 1
    23    6   24 1
    24    8   25 1
    25    9   26 1
@<TRIPOS>SUBSTRUCTURE
     1 <0>         1 GROUP 0 A     ****
