@<TRIPOS>MOLECULE
AlkEthOH_r769
   20    20     1     0     0
SMALL
USER_CHARGES

@<TRIPOS>ATOM
      1 C1          0.4853    0.9236   -0.3288 CT        1 <0>        0.09330
      2 C2         -0.0134    1.3276   -1.7037 CT        1 <0>        0.09338
      3 C3          0.7860    3.1965    0.2408 CT        1 <0>        0.10829
      4 C4          0.2802    3.6057   -1.1517 CT        1 <0>        0.10829
      5 C5          0.4385    4.2082    1.3246 CT        1 <0>       -0.08988
      6 C6          0.9263    4.8829   -1.6716 CT        1 <0>       -0.08988
      7 O1          0.1738    1.9512    0.6129 OS        1 <0>       -0.41471
      8 O2          0.5936    2.5619   -2.0879 OS        1 <0>       -0.41471
      9 H1         -0.0003    0.0001    0.0000 H1        1 <0>        0.05657
     10 H2          1.5692    0.7614   -0.3297 H1        1 <0>        0.05657
     11 H3          0.2517    0.5701   -2.4469 H1        1 <0>        0.05657
     12 H4         -1.1025    1.4516   -1.7118 H1        1 <0>        0.05657
     13 H5          1.8731    3.0445    0.2265 H1        1 <0>        0.04792
     14 H6         -0.8101    3.7324   -1.1436 H1        1 <0>        0.04792
     15 H7         -0.6392    4.3708    1.3522 HC        1 <0>        0.04730
     16 H8          0.9338    5.1581    1.1216 HC        1 <0>        0.04730
     17 H9          0.7652    3.8404    2.2976 HC        1 <0>        0.04730
     18 H10         2.0111    4.7737   -1.6861 HC        1 <0>        0.04730
     19 H11         0.6647    5.7228   -1.0275 HC        1 <0>        0.04730
     20 H12         0.5789    5.0921   -2.6836 HC        1 <0>        0.04730
@<TRIPOS>BOND
     1    1    2 1
     2    1    7 1
     3    2    8 1
     4    3    4 1
     5    3    5 1
     6    3    7 1
     7    4    6 1
     8    4    8 1
     9    1    9 1
    10    1   10 1
    11    2   11 1
    12    2   12 1
    13    3   13 1
    14    4   14 1
    15    5   15 1
    16    5   16 1
    17    5   17 1
    18    6   18 1
    19    6   19 1
    20    6   20 1
@<TRIPOS>SUBSTRUCTURE
     1 <0>         1 GROUP 0 A     ****
