@<TRIPOS>MOLECULE
AlkEthOH_c871
   21    20     1     0     0
SMALL
USER_CHARGES

@<TRIPOS>ATOM
      1 C1         -0.1830    2.7233   -1.8935 CT        1 <0>       -0.12320
      2 C2          1.0021   -1.2737    0.3597 CT        1 <0>       -0.11126
      3 C3          0.7686   -2.3539    1.4076 CT        1 <0>        0.13378
      4 C4         -0.6873    1.8039   -0.7932 CT        1 <0>        0.34310
      5 C5         -0.0811   -0.1954    0.3646 CT        1 <0>        0.33818
      6 O1          1.8108   -3.3158    1.3134 OH        1 <0>       -0.60129
      7 O2         -1.9772    1.3423   -1.1798 OH        1 <0>       -0.62949
      8 O3         -0.1068    0.4097    1.6534 OH        1 <0>       -0.62593
      9 O4          0.2561    0.7411   -0.6609 OS        1 <0>       -0.45242
     10 H1         -0.0928    2.1792   -2.8407 HC        1 <0>        0.05308
     11 H2         -0.8758    3.5545   -2.0586 HC        1 <0>        0.05308
     12 H3          0.8069    3.1211   -1.6489 HC        1 <0>        0.05308
     13 H4          1.0726   -1.7305   -0.6360 HC        1 <0>        0.07356
     14 H5          1.9855   -0.8165    0.5333 HC        1 <0>        0.07356
     15 H6         -0.1871   -2.8599    1.2382 H1        1 <0>        0.02850
     16 H7          0.7764   -1.9350    2.4186 H1        1 <0>        0.02850
     17 H8         -0.7670    2.3748    0.1390 H2        1 <0>        0.04255
     18 H9         -1.0537   -0.6581    0.1587 H2        1 <0>        0.10000
     19 H10         1.6338   -3.9878    1.9914 HO        1 <0>        0.40159
     20 H11        -2.5461    2.1243   -1.2789 HO        1 <0>        0.41285
     21 H12         0.7716    0.7962    1.8085 HO        1 <0>        0.40818
@<TRIPOS>BOND
     1    1    4 1
     2    2    3 1
     3    2    5 1
     4    3    6 1
     5    4    7 1
     6    4    9 1
     7    5    8 1
     8    5    9 1
     9    1   10 1
    10    1   11 1
    11    1   12 1
    12    2   13 1
    13    2   14 1
    14    3   15 1
    15    3   16 1
    16    4   17 1
    17    5   18 1
    18    6   19 1
    19    7   20 1
    20    8   21 1
@<TRIPOS>SUBSTRUCTURE
     1 <0>         1 GROUP 0 A     ****
