@<TRIPOS>MOLECULE
AlkEthOH_c987
   19    18     1     0     0
SMALL
USER_CHARGES

@<TRIPOS>ATOM
      1 C1          0.9784   -0.0326   -0.2360 CT        1 <0>       -0.08943
      2 C2          1.0608    0.9421   -3.9925 CT        1 <0>       -0.12315
      3 C3          1.4098    0.6794   -1.5114 CT        1 <0>       -0.07219
      4 C4         -1.5503   -0.4521   -3.3532 CT        1 <0>        0.32747
      5 C5          0.6395    0.1877   -2.7386 CT        1 <0>        0.13737
      6 O1         -1.3911   -1.8323   -3.0581 OH        1 <0>       -0.63057
      7 O2         -0.7550    0.3897   -2.5267 OS        1 <0>       -0.41254
      8 H1         -0.0930    0.1019   -0.0565 HC        1 <0>        0.03797
      9 H2          1.5239    0.3435    0.6351 HC        1 <0>        0.03797
     10 H3          1.1759   -1.1062   -0.3184 HC        1 <0>        0.03797
     11 H4          0.9007    2.0196   -3.8742 HC        1 <0>        0.04027
     12 H5          2.1149    0.7666   -4.2274 HC        1 <0>        0.04027
     13 H6          0.4568    0.6272   -4.8504 HC        1 <0>        0.04027
     14 H7          2.4847    0.5237   -1.6590 HC        1 <0>        0.04340
     15 H8          1.2456    1.7551   -1.3741 HC        1 <0>        0.04340
     16 H9         -1.3555   -0.2673   -4.4160 H2        1 <0>        0.03448
     17 H10        -2.5960   -0.1977   -3.1581 H2        1 <0>        0.03448
     18 H11         0.8085   -0.8858   -2.8804 H1        1 <0>        0.06194
     19 H12        -1.9672   -2.3250   -3.6666 HO        1 <0>        0.41062
@<TRIPOS>BOND
     1    1    3 1
     2    2    5 1
     3    3    5 1
     4    4    6 1
     5    4    7 1
     6    5    7 1
     7    1    8 1
     8    1    9 1
     9    1   10 1
    10    2   11 1
    11    2   12 1
    12    2   13 1
    13    3   14 1
    14    3   15 1
    15    4   16 1
    16    4   17 1
    17    5   18 1
    18    6   19 1
@<TRIPOS>SUBSTRUCTURE
     1 <0>         1 GROUP 0 A     ****
