@<TRIPOS>MOLECULE
AlkEthOH_r887
   27    27     1     0     0
SMALL
USER_CHARGES

@<TRIPOS>ATOM
      1 C1         -1.0417    1.8002   -0.1917 CT        1 <0>       -0.07122
      2 C2         -0.4626    1.1941   -1.4628 CT        1 <0>       -0.07032
      3 C3         -1.7954    0.8415    0.7246 CT        1 <0>       -0.07032
      4 C4          0.8734    0.4870   -1.2363 CT        1 <0>       -0.06887
      5 C5         -1.4127   -0.6350    0.6870 CT        1 <0>       -0.06887
      6 C6          0.7756   -0.9136   -0.6142 CT        1 <0>       -0.05597
      7 C7          0.0809   -0.9906    0.7689 CT        1 <0>       -0.05597
      8 C8          2.1772   -1.5402   -0.5666 CT        1 <0>       -0.08959
      9 C9          0.8054   -0.2436    1.8912 CT        1 <0>       -0.08959
     10 H1         -0.2454    2.2993    0.3733 HC        1 <0>        0.03451
     11 H2         -1.7360    2.6028   -0.4733 HC        1 <0>        0.03451
     12 H3         -1.1843    0.5316   -1.9537 HC        1 <0>        0.03606
     13 H4         -0.2778    2.0186   -2.1637 HC        1 <0>        0.03606
     14 H5         -1.7152    1.2132    1.7541 HC        1 <0>        0.03606
     15 H6         -2.8647    0.9051    0.4818 HC        1 <0>        0.03606
     16 H7          1.3568    0.3860   -2.2176 HC        1 <0>        0.03670
     17 H8          1.5394    1.1251   -0.6425 HC        1 <0>        0.03670
     18 H9         -1.9231   -1.1197    1.5308 HC        1 <0>        0.03670
     19 H10        -1.8468   -1.0968   -0.2093 HC        1 <0>        0.03670
     20 H11         0.1880   -1.5349   -1.3052 HC        1 <0>        0.04016
     21 H12         0.1043   -2.0534    1.0533 HC        1 <0>        0.04016
     22 H13         2.8066   -0.9645    0.1053 HC        1 <0>        0.03339
     23 H14         2.6085   -1.5342   -1.5630 HC        1 <0>        0.03339
     24 H15         2.1028   -2.5626   -0.2085 HC        1 <0>        0.03339
     25 H16         0.8190    0.8217    1.6722 HC        1 <0>        0.03339
     26 H17         1.8274   -0.6067    1.9721 HC        1 <0>        0.03339
     27 H18         0.2892   -0.4100    2.8341 HC        1 <0>        0.03339
@<TRIPOS>BOND
     1    1    2 1
     2    1    3 1
     3    2    4 1
     4    3    5 1
     5    4    6 1
     6    5    7 1
     7    6    7 1
     8    6    8 1
     9    7    9 1
    10    1   10 1
    11    1   11 1
    12    2   12 1
    13    2   13 1
    14    3   14 1
    15    3   15 1
    16    4   16 1
    17    4   17 1
    18    5   18 1
    19    5   19 1
    20    6   20 1
    21    7   21 1
    22    8   22 1
    23    8   23 1
    24    8   24 1
    25    9   25 1
    26    9   26 1
    27    9   27 1
@<TRIPOS>SUBSTRUCTURE
     1 <0>         1 GROUP 0 A     ****
