@<TRIPOS>MOLECULE
AlkEthOH_c786
   21    20     1     0     0
SMALL
USER_CHARGES

@<TRIPOS>ATOM
      1 C1          0.3176   -0.5752   -1.5310 CT        1 <0>       -0.11835
      2 C2          0.7590   -2.5016    2.8899 CT        1 <0>        0.11557
      3 C3          0.5495   -1.5760    0.7399 CT        1 <0>        0.10040
      4 C4         -1.4134    1.4292   -0.1994 CT        1 <0>        0.33177
      5 C5          0.3127   -0.2692   -0.0300 CT        1 <0>        0.35802
      6 O1         -0.5411    2.5299    0.0094 OH        1 <0>       -0.61235
      7 O2          1.3977    0.6011    0.2924 OH        1 <0>       -0.60355
      8 O3          0.5220   -1.3185    2.1419 OS        1 <0>       -0.41142
      9 O4         -0.9588    0.2266    0.4109 OS        1 <0>       -0.47612
     10 H1          0.1512    0.3345   -2.1186 HC        1 <0>        0.05838
     11 H2          1.2618   -1.0354   -1.8399 HC        1 <0>        0.05838
     12 H3         -0.4899   -1.2630   -1.8026 HC        1 <0>        0.05838
     13 H4          0.7313   -2.2702    3.9575 H1        1 <0>        0.03530
     14 H5          1.7344   -2.9145    2.6208 H1        1 <0>        0.03530
     15 H6         -0.0202   -3.2313    2.6572 H1        1 <0>        0.03530
     16 H7         -0.2344   -2.3090    0.5219 H1        1 <0>        0.04073
     17 H8          1.5293   -2.0035    0.5021 H1        1 <0>        0.04073
     18 H9         -2.3867    1.6778    0.2361 H2        1 <0>        0.05748
     19 H10        -1.5696    1.2954   -1.2729 H2        1 <0>        0.05748
     20 H11        -0.9335    3.2970   -0.4409 HO        1 <0>        0.41193
     21 H12         2.2259    0.1552    0.0479 HO        1 <0>        0.42664
@<TRIPOS>BOND
     1    1    5 1
     2    2    8 1
     3    3    5 1
     4    3    8 1
     5    4    6 1
     6    4    9 1
     7    5    7 1
     8    5    9 1
     9    1   10 1
    10    1   11 1
    11    1   12 1
    12    2   13 1
    13    2   14 1
    14    2   15 1
    15    3   16 1
    16    3   17 1
    17    4   18 1
    18    4   19 1
    19    6   20 1
    20    7   21 1
@<TRIPOS>SUBSTRUCTURE
     1 <0>         1 GROUP 0 A     ****
