@<TRIPOS>MOLECULE
AlkEthOH_c1184
   31    30     1     0     0
SMALL
USER_CHARGES

@<TRIPOS>ATOM
      1 C1         -0.3093    1.5583   -2.1219 CT        1 <0>       -0.09681
      2 C2          0.0063   -5.0184   -1.4757 CT        1 <0>       -0.12509
      3 C3         -0.6314   -4.1477    0.7740 CT        1 <0>       -0.12509
      4 C4         -2.0732   -2.7519   -3.1285 CT        1 <0>       -0.09841
      5 C5          0.3580   -2.3295   -3.5315 CT        1 <0>       -0.09841
      6 C6         -0.5721   -2.5220   -1.1323 CT        1 <0>       -0.08973
      7 C7          0.0292    0.0829   -2.1023 CT        1 <0>        0.12653
      8 C8         -0.8572   -3.9933   -0.7377 CT        1 <0>        0.15789
      9 C9         -0.8139   -2.0559   -2.5894 CT        1 <0>        0.16480
     10 O1         -2.2401   -4.2850   -0.9508 OH        1 <0>       -0.59568
     11 O2         -1.0824   -0.6527   -2.5874 OS        1 <0>       -0.42523
     12 H1         -0.5331    1.8938   -3.1384 HC        1 <0>        0.04302
     13 H2         -1.1744    1.7643   -1.4831 HC        1 <0>        0.04302
     14 H3          0.5241    2.1506   -1.7298 HC        1 <0>        0.04302
     15 H4         -0.1339   -4.9322   -2.5597 HC        1 <0>        0.04315
     16 H5         -0.2428   -6.0422   -1.1790 HC        1 <0>        0.04315
     17 H6          1.0737   -4.8494   -1.3036 HC        1 <0>        0.04315
     18 H7         -1.2364   -3.4265    1.3358 HC        1 <0>        0.04315
     19 H8          0.4200   -4.0029    1.0432 HC        1 <0>        0.04315
     20 H9         -0.9426   -5.1416    1.1165 HC        1 <0>        0.04315
     21 H10        -2.9383   -2.5798   -2.4798 HC        1 <0>        0.04475
     22 H11        -2.3158   -2.3935   -4.1357 HC        1 <0>        0.04475
     23 H12        -1.9177   -3.8334   -3.2174 HC        1 <0>        0.04475
     24 H13         1.2703   -1.8419   -3.1669 HC        1 <0>        0.04475
     25 H14         0.1588   -1.9606   -4.5424 HC        1 <0>        0.04475
     26 H15         0.5991   -3.3953   -3.5759 HC        1 <0>        0.04475
     27 H16         0.4823   -2.3186   -0.8962 HC        1 <0>        0.05460
     28 H17        -1.1761   -1.8802   -0.4750 HC        1 <0>        0.05460
     29 H18         0.2519   -0.2462   -1.0829 H1        1 <0>        0.02203
     30 H19         0.8932   -0.1214   -2.7417 H1        1 <0>        0.02203
     31 H20        -2.3871   -5.1764   -0.6015 HO        1 <0>        0.39551
@<TRIPOS>BOND
     1    1    7 1
     2    2    8 1
     3    3    8 1
     4    4    9 1
     5    5    9 1
     6    6    8 1
     7    6    9 1
     8    7   11 1
     9    8   10 1
    10    9   11 1
    11    1   12 1
    12    1   13 1
    13    1   14 1
    14    2   15 1
    15    2   16 1
    16    2   17 1
    17    3   18 1
    18    3   19 1
    19    3   20 1
    20    4   21 1
    21    4   22 1
    22    4   23 1
    23    5   24 1
    24    5   25 1
    25    5   26 1
    26    6   27 1
    27    6   28 1
    28    7   29 1
    29    7   30 1
    30   10   31 1
@<TRIPOS>SUBSTRUCTURE
     1 <0>         1 GROUP 0 A     ****
