@<TRIPOS>MOLECULE
AlkEthOH_c839
   30    29     1     0     0
SMALL
USER_CHARGES

@<TRIPOS>ATOM
      1 C1          3.4169   -0.0711    0.0564 CT        1 <0>       -0.12833
      2 C2         -2.2213    0.1347   -2.0244 CT        1 <0>       -0.12842
      3 C3         -0.1274   -1.1468   -1.6308 CT        1 <0>       -0.12842
      4 C4         -0.0182    1.7541    1.7533 CT        1 <0>       -0.10698
      5 C5         -0.7717   -0.5672    2.1160 CT        1 <0>       -0.10698
      6 C6          2.1329    0.7248    0.2492 CT        1 <0>        0.34184
      7 C7         -1.3269   -0.4904   -0.9467 CT        1 <0>        0.36649
      8 C8         -0.1446    0.3763    1.0798 CT        1 <0>        0.37481
      9 O1          1.7705    1.3515   -0.9760 OH        1 <0>       -0.61764
     10 O2         -2.0783   -1.5152   -0.2951 OH        1 <0>       -0.62845
     11 O3          1.1427   -0.1718    0.7571 OS        1 <0>       -0.45384
     12 O4         -0.9827    0.5829   -0.0649 OS        1 <0>       -0.42376
     13 H1          3.2761   -0.8724   -0.6755 HC        1 <0>        0.05274
     14 H2          4.2345    0.5793   -0.2700 HC        1 <0>        0.05274
     15 H3          3.7280   -0.5360    0.9989 HC        1 <0>        0.05274
     16 H4         -3.0946    0.6162   -1.5683 HC        1 <0>        0.05109
     17 H5         -1.6857    0.9091   -2.5845 HC        1 <0>        0.05109
     18 H6         -2.5966   -0.6207   -2.7230 HC        1 <0>        0.05109
     19 H7          0.5480   -1.6111   -0.9073 HC        1 <0>        0.05109
     20 H8         -0.4375   -1.9184   -2.3414 HC        1 <0>        0.05109
     21 H9          0.4386   -0.4117   -2.2147 HC        1 <0>        0.05109
     22 H10         0.4241    2.4938    1.0777 HC        1 <0>        0.05463
     23 H11         0.5913    1.6918    2.6623 HC        1 <0>        0.05463
     24 H12        -0.9954    2.1333    2.0727 HC        1 <0>        0.05463
     25 H13        -0.8927   -1.5753    1.7023 HC        1 <0>        0.05463
     26 H14        -1.7762   -0.2426    2.4043 HC        1 <0>        0.05463
     27 H15        -0.1638   -0.6302    3.0246 HC        1 <0>        0.05463
     28 H16         2.3295    1.5087    0.9874 H2        1 <0>        0.03821
     29 H17         2.4902    1.9466   -1.2440 HO        1 <0>        0.40428
     30 H18        -2.3337   -2.1783   -0.9580 HO        1 <0>        0.40465
@<TRIPOS>BOND
     1    1    6 1
     2    2    7 1
     3    3    7 1
     4    4    8 1
     5    5    8 1
     6    6    9 1
     7    6   11 1
     8    7   10 1
     9    7   12 1
    10    8   11 1
    11    8   12 1
    12    1   13 1
    13    1   14 1
    14    1   15 1
    15    2   16 1
    16    2   17 1
    17    2   18 1
    18    3   19 1
    19    3   20 1
    20    3   21 1
    21    4   22 1
    22    4   23 1
    23    4   24 1
    24    5   25 1
    25    5   26 1
    26    5   27 1
    27    6   28 1
    28    9   29 1
    29   10   30 1
@<TRIPOS>SUBSTRUCTURE
     1 <0>         1 GROUP 0 A     ****
