@<TRIPOS>MOLECULE
AlkEthOH_c1004
   20    19     1     0     0
SMALL
USER_CHARGES

@<TRIPOS>ATOM
      1 C1          1.8480    1.8213   -0.1321 CT        1 <0>       -0.08784
      2 C2         -1.8581   -0.9109    1.8946 CT        1 <0>       -0.12687
      3 C3          0.8507    1.4554   -1.2212 CT        1 <0>       -0.10738
      4 C4         -1.1369   -1.1108    0.5716 CT        1 <0>        0.34415
      5 C5          0.2095    0.0853   -0.9949 CT        1 <0>        0.34430
      6 O1         -0.2109   -2.1778    0.7463 OH        1 <0>       -0.63552
      7 O2         -0.6635   -0.1582   -2.0948 OH        1 <0>       -0.63583
      8 O3         -0.4939    0.1210    0.2471 OS        1 <0>       -0.41650
      9 H1          1.3796    1.8134    0.8570 HC        1 <0>        0.04083
     10 H2          2.2460    2.8259   -0.3073 HC        1 <0>        0.04083
     11 H3          2.6889    1.1206   -0.1209 HC        1 <0>        0.04083
     12 H4         -1.1488   -0.6360    2.6839 HC        1 <0>        0.05247
     13 H5         -2.3595   -1.8309    2.2113 HC        1 <0>        0.05247
     14 H6         -2.5948   -0.1045    1.8211 HC        1 <0>        0.05247
     15 H7          1.3496    1.4723   -2.1977 HC        1 <0>        0.04994
     16 H8          0.0701    2.2257   -1.2588 HC        1 <0>        0.04994
     17 H9         -1.8700   -1.3841   -0.1961 H2        1 <0>        0.05926
     18 H10         0.9922   -0.6827   -0.9803 H2        1 <0>        0.05910
     19 H11        -0.7223   -2.9659    0.9956 HO        1 <0>        0.41157
     20 H12        -0.1216   -0.1454   -2.9018 HO        1 <0>        0.41178
@<TRIPOS>BOND
     1    1    3 1
     2    2    4 1
     3    3    5 1
     4    4    6 1
     5    4    8 1
     6    5    7 1
     7    5    8 1
     8    1    9 1
     9    1   10 1
    10    1   11 1
    11    2   12 1
    12    2   13 1
    13    2   14 1
    14    3   15 1
    15    3   16 1
    16    4   17 1
    17    5   18 1
    18    6   19 1
    19    7   20 1
@<TRIPOS>SUBSTRUCTURE
     1 <0>         1 GROUP 0 A     ****
