@<TRIPOS>MOLECULE
AlkEthOH_c562
   23    22     1     0     0
SMALL
USER_CHARGES

@<TRIPOS>ATOM
      1 C1          0.1786    3.2217   -1.6760 CT        1 <0>       -0.10704
      2 C2          0.4237    1.0297   -2.8952 CT        1 <0>       -0.10704
      3 C3          1.6009   -0.3333    1.0852 CT        1 <0>       -0.11569
      4 C4         -1.4098   -0.8629    1.1248 CT        1 <0>        0.33564
      5 C5          0.0919    1.7066   -1.5740 CT        1 <0>        0.14066
      6 C6          0.5254    0.0700    0.0846 CT        1 <0>        0.33716
      7 O1         -1.8705   -1.5692   -0.0186 OH        1 <0>       -0.63631
      8 O2         -0.6935    0.3204    0.7877 OS        1 <0>       -0.44207
      9 O3          0.9959    1.2523   -0.5753 OS        1 <0>       -0.41632
     10 H1          1.1768    3.5422   -1.9896 HC        1 <0>        0.04178
     11 H2         -0.5530    3.5975   -2.3993 HC        1 <0>        0.04178
     12 H3         -0.0563    3.6958   -0.7165 HC        1 <0>        0.04178
     13 H4          1.4277    1.2979   -3.2379 HC        1 <0>        0.04178
     14 H5         -0.2986    1.3218   -3.6650 HC        1 <0>        0.04178
     15 H6          0.3638   -0.0606   -2.8054 HC        1 <0>        0.04178
     16 H7          1.7361    0.4503    1.8396 HC        1 <0>        0.05135
     17 H8          2.5645   -0.4757    0.5856 HC        1 <0>        0.05135
     18 H9          1.3343   -1.2527    1.6145 HC        1 <0>        0.05135
     19 H10        -0.8211   -1.5272    1.7666 H2        1 <0>        0.03676
     20 H11        -2.2938   -0.5538    1.6898 H2        1 <0>        0.03676
     21 H12        -0.9165    1.4187   -1.2590 H1        1 <0>        0.06338
     22 H13         0.4036   -0.7248   -0.6620 H2        1 <0>        0.05693
     23 H14        -2.3447   -2.3562    0.2987 HO        1 <0>        0.41245
@<TRIPOS>BOND
     1    1    5 1
     2    2    5 1
     3    3    6 1
     4    4    7 1
     5    4    8 1
     6    5    9 1
     7    6    8 1
     8    6    9 1
     9    1   10 1
    10    1   11 1
    11    1   12 1
    12    2   13 1
    13    2   14 1
    14    2   15 1
    15    3   16 1
    16    3   17 1
    17    3   18 1
    18    4   19 1
    19    4   20 1
    20    5   21 1
    21    6   22 1
    22    7   23 1
@<TRIPOS>SUBSTRUCTURE
     1 <0>         1 GROUP 0 A     ****
