@<TRIPOS>MOLECULE
AlkEthOH_c970
   27    26     1     0     0
SMALL
USER_CHARGES

@<TRIPOS>ATOM
      1 C1         -2.9311   -1.8064   -0.2314 CT        1 <0>       -0.09047
      2 C2         -1.3792    0.6744   -1.0800 CT        1 <0>       -0.08702
      3 C3          2.0697    0.1900   -1.1336 CT        1 <0>       -0.12407
      4 C4          2.6615    0.9502    1.1748 CT        1 <0>       -0.12407
      5 C5         -1.8311   -1.1688    0.6066 CT        1 <0>       -0.07898
      6 C6          0.3311    0.1058    0.7447 CT        1 <0>       -0.06401
      7 C7         -0.7553   -0.4303   -0.2239 CT        1 <0>       -0.05691
      8 C8          1.5372    0.8575    0.1345 CT        1 <0>        0.15309
      9 O1          1.1669    2.1949   -0.2011 OH        1 <0>       -0.59738
     10 H1         -3.4374   -1.0405   -0.8280 HC        1 <0>        0.03289
     11 H2         -2.5316   -2.5496   -0.9266 HC        1 <0>        0.03289
     12 H3         -3.6799   -2.2894    0.4039 HC        1 <0>        0.03289
     13 H4         -1.8567    1.4412   -0.4631 HC        1 <0>        0.03756
     14 H5         -0.6255    1.1640   -1.7056 HC        1 <0>        0.03756
     15 H6         -2.1642    0.2800   -1.7307 HC        1 <0>        0.03756
     16 H7          1.2932    0.1063   -1.9007 HC        1 <0>        0.04204
     17 H8          2.4461   -0.8161   -0.9138 HC        1 <0>        0.04204
     18 H9          2.9194    0.7403   -1.5508 HC        1 <0>        0.04204
     19 H10         2.3042    1.4262    2.0952 HC        1 <0>        0.04204
     20 H11         3.5153    1.5224    0.7972 HC        1 <0>        0.04204
     21 H12         3.0127   -0.0481    1.4605 HC        1 <0>        0.04204
     22 H13        -1.3507   -1.9667    1.1868 HC        1 <0>        0.03594
     23 H14        -2.2840   -0.4814    1.3316 HC        1 <0>        0.03594
     24 H15         0.7200   -0.7500    1.3137 HC        1 <0>        0.04860
     25 H16        -0.1609    0.7657    1.4727 HC        1 <0>        0.04860
     26 H17        -0.2943   -1.1659   -0.8942 HC        1 <0>        0.04229
     27 H18         1.9708    2.6283   -0.5251 HO        1 <0>        0.39486
@<TRIPOS>BOND
     1    1    5 1
     2    2    7 1
     3    3    8 1
     4    4    8 1
     5    5    7 1
     6    6    7 1
     7    6    8 1
     8    8    9 1
     9    1   10 1
    10    1   11 1
    11    1   12 1
    12    2   13 1
    13    2   14 1
    14    2   15 1
    15    3   16 1
    16    3   17 1
    17    3   18 1
    18    4   19 1
    19    4   20 1
    20    4   21 1
    21    5   22 1
    22    5   23 1
    23    6   24 1
    24    6   25 1
    25    7   26 1
    26    9   27 1
@<TRIPOS>SUBSTRUCTURE
     1 <0>         1 GROUP 0 A     ****
