@<TRIPOS>MOLECULE
AlkEthOH_r601
   16    16     1     0     0
SMALL
USER_CHARGES

@<TRIPOS>ATOM
      1 C1          1.2172    0.4451   -0.0749 CT        1 <0>        0.12558
      2 C2         -0.2950   -0.7536    1.0968 CT        1 <0>        0.52307
      3 C3         -0.0531    0.3265   -0.8904 CT        1 <0>        0.32545
      4 C4         -0.4574    1.6312   -1.5552 CT        1 <0>       -0.11503
      5 O1          1.1119   -0.6478    0.8413 OS        1 <0>       -0.41666
      6 O2         -1.0315   -0.0689    0.0741 OS        1 <0>       -0.50832
      7 O3         -0.6232   -0.2443    2.3841 OH        1 <0>       -0.62507
      8 O4          0.1311   -0.6882   -1.8757 OH        1 <0>       -0.60542
      9 H1          2.1331    0.3408   -0.6632 H1        1 <0>        0.07928
     10 H2          1.2566    1.3692    0.5125 H1        1 <0>        0.07928
     11 H3         -0.5642   -1.8149    1.0605 H3        1 <0>        0.11017
     12 H4         -1.3757    1.4936   -2.1291 HC        1 <0>        0.05855
     13 H5          0.3301    1.9701   -2.2308 HC        1 <0>        0.05855
     14 H6         -0.6278    2.4019   -0.8012 HC        1 <0>        0.05855
     15 H7         -1.5826   -0.3469    2.4881 HO        1 <0>        0.42808
     16 H8         -0.6968   -0.7379   -2.3776 HO        1 <0>        0.42394
@<TRIPOS>BOND
     1    1    3 1
     2    1    5 1
     3    2    5 1
     4    2    6 1
     5    2    7 1
     6    3    4 1
     7    3    6 1
     8    3    8 1
     9    1    9 1
    10    1   10 1
    11    2   11 1
    12    4   12 1
    13    4   13 1
    14    4   14 1
    15    7   15 1
    16    8   16 1
@<TRIPOS>SUBSTRUCTURE
     1 <0>         1 GROUP 0 A     ****
