@<TRIPOS>MOLECULE
AlkEthOH_c1070
   20    19     1     0     0
SMALL
USER_CHARGES

@<TRIPOS>ATOM
      1 C1          0.8222   -0.2572   -0.6038 CT        1 <0>       -0.09233
      2 C2          2.2230    2.3984   -3.8121 CT        1 <0>       -0.09062
      3 C3          0.8472    4.2720   -2.8863 CT        1 <0>       -0.09062
      4 C4          0.8430    0.4612   -1.9447 CT        1 <0>       -0.08112
      5 C5          0.8300    1.9809   -1.7632 CT        1 <0>       -0.07359
      6 C6          0.9223    2.7580   -3.0895 CT        1 <0>       -0.06649
      7 H1         -0.0619    0.0224   -0.0220 HC        1 <0>        0.03211
      8 H2          0.8147   -1.3432   -0.7412 HC        1 <0>        0.03211
      9 H3          1.7096    0.0054   -0.0195 HC        1 <0>        0.03211
     10 H4          3.0935    2.6799   -3.2102 HC        1 <0>        0.03285
     11 H5          2.2969    2.9119   -4.7769 HC        1 <0>        0.03285
     12 H6          2.2811    1.3204   -3.9964 HC        1 <0>        0.03285
     13 H7          1.6629    4.6278   -2.2478 HC        1 <0>        0.03285
     14 H8          0.9162    4.7962   -3.8457 HC        1 <0>        0.03285
     15 H9         -0.1006    4.5660   -2.4256 HC        1 <0>        0.03285
     16 H10         1.7384    0.1594   -2.5000 HC        1 <0>        0.03872
     17 H11        -0.0273    0.1387   -2.5258 HC        1 <0>        0.03872
     18 H12        -0.0790    2.2753   -1.2230 HC        1 <0>        0.03910
     19 H13         1.6784    2.2658   -1.1276 HC        1 <0>        0.03910
     20 H14         0.0863    2.4562   -3.7332 HC        1 <0>        0.04570
@<TRIPOS>BOND
     1    1    4 1
     2    2    6 1
     3    3    6 1
     4    4    5 1
     5    5    6 1
     6    1    7 1
     7    1    8 1
     8    1    9 1
     9    2   10 1
    10    2   11 1
    11    2   12 1
    12    3   13 1
    13    3   14 1
    14    3   15 1
    15    4   16 1
    16    4   17 1
    17    5   18 1
    18    5   19 1
    19    6   20 1
@<TRIPOS>SUBSTRUCTURE
     1 <0>         1 GROUP 0 A     ****
