@<TRIPOS>MOLECULE
AlkEthOH_c1159
   19    18     1     0     0
SMALL
USER_CHARGES

@<TRIPOS>ATOM
      1 C1         -0.0095   -0.6551    0.8768 CT        1 <0>       -0.09371
      2 C2          1.2444   -0.4434    1.7060 CT        1 <0>       -0.08449
      3 C3          1.2749   -1.3494    2.9273 CT        1 <0>        0.13070
      4 C4          3.8457   -1.6035    5.5465 CT        1 <0>        0.12965
      5 C5          2.5499   -1.9092    4.8204 CT        1 <0>        0.12007
      6 O1          4.9400   -1.8943    4.6855 OH        1 <0>       -0.59918
      7 O2          2.4629   -1.0899    3.6622 OS        1 <0>       -0.42497
      8 H1         -0.0920   -1.6965    0.5497 HC        1 <0>        0.03472
      9 H2         -0.8996   -0.4128    1.4659 HC        1 <0>        0.03472
     10 H3         -0.0053   -0.0150   -0.0111 HC        1 <0>        0.03472
     11 H4          1.3083    0.6043    2.0234 HC        1 <0>        0.05419
     12 H5          2.1333   -0.6260    1.0902 HC        1 <0>        0.05419
     13 H6          0.4147   -1.1588    3.5770 H1        1 <0>        0.02537
     14 H7          1.2712   -2.4035    2.6320 H1        1 <0>        0.02537
     15 H8          3.9478   -2.2175    6.4466 H1        1 <0>        0.03925
     16 H9          3.8933   -0.5442    5.8153 H1        1 <0>        0.03925
     17 H10         1.6829   -1.6969    5.4539 H1        1 <0>        0.03874
     18 H11         2.5267   -2.9556    4.5025 H1        1 <0>        0.03874
     19 H12         5.7480   -1.6876    5.1817 HO        1 <0>        0.40267
@<TRIPOS>BOND
     1    1    2 1
     2    2    3 1
     3    3    7 1
     4    4    5 1
     5    4    6 1
     6    5    7 1
     7    1    8 1
     8    1    9 1
     9    1   10 1
    10    2   11 1
    11    2   12 1
    12    3   13 1
    13    3   14 1
    14    4   15 1
    15    4   16 1
    16    5   17 1
    17    5   18 1
    18    6   19 1
@<TRIPOS>SUBSTRUCTURE
     1 <0>         1 GROUP 0 A     ****
