@<TRIPOS>MOLECULE
AlkEthOH_r435
   32    32     1     0     0
SMALL
USER_CHARGES

@<TRIPOS>ATOM
      1 C1          1.5657   -1.1607    0.6135 CT        1 <0>       -0.07113
      2 C2          1.4896   -0.6814    2.0710 CT        1 <0>       -0.11116
      3 C3          1.6334   -0.0006   -0.3979 CT        1 <0>       -0.06557
      4 C4         -0.8856   -0.0757   -1.1101 CT        1 <0>       -0.09967
      5 C5          0.0737   -0.6351    2.6582 CT        1 <0>        0.12981
      6 C6         -0.9500    1.0087    1.2545 CT        1 <0>        0.12985
      7 C7         -1.4375    1.0360   -0.1956 CT        1 <0>        0.14250
      8 C8          0.6020   -0.0163   -1.5552 CT        1 <0>       -0.04383
      9 C9          0.8750   -1.2404   -2.4590 CT        1 <0>       -0.09073
     10 C10         0.8298    1.2504   -2.4093 CT        1 <0>       -0.09073
     11 O1         -0.9339   -0.3421    1.7027 OS        1 <0>       -0.41181
     12 O2         -2.8621    0.8571   -0.1727 OH        1 <0>       -0.60075
     13 H1          2.4947   -1.7363    0.5060 HC        1 <0>        0.04788
     14 H2          0.7577   -1.8660    0.3978 HC        1 <0>        0.04788
     15 H3          2.0875   -1.3499    2.7035 HC        1 <0>        0.04128
     16 H4          1.9592    0.3044    2.1712 HC        1 <0>        0.04128
     17 H5          1.5983    0.9683    0.1084 HC        1 <0>        0.03649
     18 H6          2.6395   -0.0230   -0.8427 HC        1 <0>        0.03649
     19 H7         -1.1032   -1.0538   -0.6613 HC        1 <0>        0.05492
     20 H8         -1.5059   -0.0758   -2.0199 HC        1 <0>        0.05492
     21 H9         -0.1652   -1.6270    3.0581 H1        1 <0>        0.04517
     22 H10         0.0185    0.0655    3.4995 H1        1 <0>        0.04517
     23 H11         0.0308    1.4797    1.3423 H1        1 <0>        0.04525
     24 H12        -1.6338    1.5638    1.9066 H1        1 <0>        0.04525
     25 H13        -1.2598    2.0238   -0.6317 H1        1 <0>        0.03382
     26 H14         0.1532   -1.2480   -3.2656 HC        1 <0>        0.03476
     27 H15         0.7793   -2.1413   -1.8665 HC        1 <0>        0.03476
     28 H16         1.8781   -1.1635   -2.8588 HC        1 <0>        0.03476
     29 H17         0.1171    1.2576   -3.2248 HC        1 <0>        0.03476
     30 H18         1.8395    1.2339   -2.8005 HC        1 <0>        0.03476
     31 H19         0.6882    2.1249   -1.7863 HC        1 <0>        0.03476
     32 H20        -3.1556    0.9468   -1.0895 HO        1 <0>        0.39886
@<TRIPOS>BOND
     1    1    2 1
     2    1    3 1
     3    2    5 1
     4    3    8 1
     5    4    7 1
     6    4    8 1
     7    5   11 1
     8    6    7 1
     9    6   11 1
    10    7   12 1
    11    8    9 1
    12    8   10 1
    13    1   13 1
    14    1   14 1
    15    2   15 1
    16    2   16 1
    17    3   17 1
    18    3   18 1
    19    4   19 1
    20    4   20 1
    21    5   21 1
    22    5   22 1
    23    6   23 1
    24    6   24 1
    25    7   25 1
    26    9   26 1
    27    9   27 1
    28    9   28 1
    29   10   29 1
    30   10   30 1
    31   10   31 1
    32   12   32 1
@<TRIPOS>SUBSTRUCTURE
     1 <0>         1 GROUP 0 A     ****
