@<TRIPOS>MOLECULE
AlkEthOH_r391
   35    35     1     0     0
SMALL
USER_CHARGES

@<TRIPOS>ATOM
      1 C1         -1.2016    2.3788   -0.7522 CT        1 <0>       -0.06677
      2 C2         -0.7602    1.9243    0.6453 CT        1 <0>       -0.06762
      3 C3         -2.0501    1.3700   -1.5430 CT        1 <0>       -0.08350
      4 C4          0.6936    1.4136    0.6729 CT        1 <0>       -0.07101
      5 C5          0.2120   -1.1482    0.8331 CT        1 <0>       -0.10948
      6 C6         -1.7262   -0.1044   -1.3280 CT        1 <0>        0.14839
      7 C7          0.9439    0.0908    1.4407 CT        1 <0>       -0.03718
      8 C8          0.1996   -1.4101   -0.7005 CT        1 <0>        0.35463
      9 C9          0.4773    0.2421    2.9101 CT        1 <0>       -0.09130
     10 C10         2.4691   -0.1530    1.4994 CT        1 <0>       -0.09130
     11 C11         1.5946   -1.6651   -1.2679 CT        1 <0>       -0.11666
     12 O1         -0.3272   -0.3143   -1.4561 OS        1 <0>       -0.41676
     13 O2         -0.5247   -2.6247   -0.9537 OH        1 <0>       -0.63379
     14 H1         -1.7995    3.2940   -0.6498 HC        1 <0>        0.03838
     15 H2         -0.3302    2.6689   -1.3522 HC        1 <0>        0.03838
     16 H3         -0.8087    2.7960    1.3118 HC        1 <0>        0.03599
     17 H4         -1.4718    1.2049    1.0583 HC        1 <0>        0.03599
     18 H5         -3.1093    1.5258   -1.3033 HC        1 <0>        0.04197
     19 H6         -1.9393    1.6095   -2.6082 HC        1 <0>        0.04197
     20 H7          1.1000    1.3234   -0.3407 HC        1 <0>        0.04742
     21 H8          1.3018    2.2035    1.1375 HC        1 <0>        0.04742
     22 H9          0.5976   -2.0546    1.3239 HC        1 <0>        0.04912
     23 H10        -0.8334   -1.1112    1.1669 HC        1 <0>        0.04912
     24 H11        -2.1097   -0.4236   -0.3553 H1        1 <0>        0.03982
     25 H12        -2.2373   -0.7069   -2.0872 H1        1 <0>        0.03982
     26 H13         0.6592   -0.6887    3.4298 HC        1 <0>        0.03441
     27 H14        -0.5793    0.4733    2.9167 HC        1 <0>        0.03441
     28 H15         1.0381    1.0436    3.3716 HC        1 <0>        0.03441
     29 H16         2.6565   -1.0756    2.0341 HC        1 <0>        0.03441
     30 H17         2.9371    0.6760    2.0149 HC        1 <0>        0.03441
     31 H18         2.8518   -0.2255    0.4891 HC        1 <0>        0.03441
     32 H19         1.5282   -1.8416   -2.3395 HC        1 <0>        0.05369
     33 H20         2.0322   -2.5377   -0.7875 HC        1 <0>        0.05369
     34 H21         2.2286   -0.7998   -1.0858 HC        1 <0>        0.05369
     35 H22        -0.0500   -3.3188   -0.4779 HO        1 <0>        0.40942
@<TRIPOS>BOND
     1    1    2 1
     2    1    3 1
     3    2    4 1
     4    3    6 1
     5    4    7 1
     6    5    7 1
     7    5    8 1
     8    6   12 1
     9    7    9 1
    10    7   10 1
    11    8   11 1
    12    8   12 1
    13    8   13 1
    14    1   14 1
    15    1   15 1
    16    2   16 1
    17    2   17 1
    18    3   18 1
    19    3   19 1
    20    4   20 1
    21    4   21 1
    22    5   22 1
    23    5   23 1
    24    6   24 1
    25    6   25 1
    26    9   26 1
    27    9   27 1
    28    9   28 1
    29   10   29 1
    30   10   30 1
    31   10   31 1
    32   11   32 1
    33   11   33 1
    34   11   34 1
    35   13   35 1
@<TRIPOS>SUBSTRUCTURE
     1 <0>         1 GROUP 0 A     ****
