@<TRIPOS>MOLECULE
AlkEthOH_c1022
   32    31     1     0     0
SMALL
USER_CHARGES

@<TRIPOS>ATOM
      1 C1          0.7228    0.4785   -3.6230 CT        1 <0>       -0.09188
      2 C2          1.4650   -1.2583    1.4130 CT        1 <0>       -0.08895
      3 C3          1.0972    1.1778    1.7209 CT        1 <0>       -0.08895
      4 C4         -0.5032   -0.4583    2.7001 CT        1 <0>       -0.08895
      5 C5         -1.2192   -1.4725   -0.1361 CT        1 <0>       -0.09012
      6 C6         -1.6118    0.9618    0.1994 CT        1 <0>       -0.09012
      7 C7         -0.2882    0.2555   -2.5056 CT        1 <0>       -0.08138
      8 C8          0.4063    0.1872   -1.1366 CT        1 <0>       -0.07223
      9 C9          0.3697   -0.1629    1.4551 CT        1 <0>       -0.04178
     10 C10        -0.5051   -0.1177    0.1044 CT        1 <0>       -0.02983
     11 H1          1.2860    1.4001   -3.4453 HC        1 <0>        0.03213
     12 H2          1.4361   -0.3500   -3.6783 HC        1 <0>        0.03213
     13 H3          0.2226    0.5681   -4.5927 HC        1 <0>        0.03213
     14 H4          1.0428   -2.2511    1.2282 HC        1 <0>        0.03384
     15 H5          2.0465   -1.2981    2.3381 HC        1 <0>        0.03384
     16 H6          2.1768   -1.0681    0.6000 HC        1 <0>        0.03384
     17 H7          0.3995    2.0191    1.7682 HC        1 <0>        0.03384
     18 H8          1.8132    1.4006    0.9203 HC        1 <0>        0.03384
     19 H9          1.6710    1.1538    2.6528 HC        1 <0>        0.03384
     20 H10        -1.3115    0.2714    2.8127 HC        1 <0>        0.03384
     21 H11        -0.9785   -1.4437    2.6193 HC        1 <0>        0.03384
     22 H12         0.0817   -0.4660    3.6239 HC        1 <0>        0.03384
     23 H13        -0.5052   -2.2986   -0.2165 HC        1 <0>        0.03430
     24 H14        -1.7821   -1.4749   -1.0747 HC        1 <0>        0.03430
     25 H15        -1.9079   -1.7196    0.6770 HC        1 <0>        0.03430
     26 H16        -1.1894    1.9573    0.3702 HC        1 <0>        0.03430
     27 H17        -2.3233    0.7522    1.0029 HC        1 <0>        0.03430
     28 H18        -2.2019    1.0156   -0.7225 HC        1 <0>        0.03430
     29 H19        -0.8323   -0.6704   -2.7131 HC        1 <0>        0.03855
     30 H20        -1.0103    1.0779   -2.5287 HC        1 <0>        0.03855
     31 H21         0.9212    1.1424   -0.9867 HC        1 <0>        0.04017
     32 H22         1.1872   -0.5803   -1.2038 HC        1 <0>        0.04017
@<TRIPOS>BOND
     1    1    7 1
     2    2    9 1
     3    3    9 1
     4    4    9 1
     5    5   10 1
     6    6   10 1
     7    7    8 1
     8    8   10 1
     9    9   10 1
    10    1   11 1
    11    1   12 1
    12    1   13 1
    13    2   14 1
    14    2   15 1
    15    2   16 1
    16    3   17 1
    17    3   18 1
    18    3   19 1
    19    4   20 1
    20    4   21 1
    21    4   22 1
    22    5   23 1
    23    5   24 1
    24    5   25 1
    25    6   26 1
    26    6   27 1
    27    6   28 1
    28    7   29 1
    29    7   30 1
    30    8   31 1
    31    8   32 1
@<TRIPOS>SUBSTRUCTURE
     1 <0>         1 GROUP 0 A     ****
