@<TRIPOS>MOLECULE
AlkEthOH_c346
   28    27     1     0     0
SMALL
USER_CHARGES

@<TRIPOS>ATOM
      1 C1          0.5764    1.7549    0.6838 CT        1 <0>       -0.09135
      2 C2          1.1533    0.9663   -1.6223 CT        1 <0>       -0.09135
      3 C3          1.2947   -2.6358    0.9132 CT        1 <0>       -0.10777
      4 C4         -0.2967   -2.6912    2.8558 CT        1 <0>       -0.10777
      5 C5         -1.1452   -3.1216    0.5313 CT        1 <0>       -0.10777
      6 C6          0.8773    0.5269   -0.1829 CT        1 <0>       -0.11110
      7 C7         -0.2545   -0.5189   -0.1271 CT        1 <0>        0.33454
      8 C8         -0.1330   -2.3495    1.3764 CT        1 <0>        0.15493
      9 O1         -1.4577    0.0616   -0.6225 OH        1 <0>       -0.60080
     10 O2         -0.3864   -0.9591    1.2275 OS        1 <0>       -0.40776
     11 H1         -0.3278    2.2625    0.3304 HC        1 <0>        0.03900
     12 H2          0.4168    1.4800    1.7317 HC        1 <0>        0.03900
     13 H3          1.3970    2.4786    0.6435 HC        1 <0>        0.03900
     14 H4          0.2760    1.4388   -2.0762 HC        1 <0>        0.03900
     15 H5          1.9773    1.6873   -1.6550 HC        1 <0>        0.03900
     16 H6          1.4368    0.1092   -2.2420 HC        1 <0>        0.03900
     17 H7          1.4163   -2.3918   -0.1483 HC        1 <0>        0.04420
     18 H8          2.0282   -2.0614    1.4883 HC        1 <0>        0.04420
     19 H9          1.5325   -3.7009    1.0147 HC        1 <0>        0.04420
     20 H10        -1.3196   -2.4873    3.1924 HC        1 <0>        0.04420
     21 H11         0.3614   -2.0708    3.4748 HC        1 <0>        0.04420
     22 H12        -0.0695   -3.7434    3.0549 HC        1 <0>        0.04420
     23 H13        -2.1693   -2.9164    0.8634 HC        1 <0>        0.04420
     24 H14        -1.0671   -2.8614   -0.5293 HC        1 <0>        0.04420
     25 H15        -0.9967   -4.2024    0.6365 HC        1 <0>        0.04420
     26 H16         1.7883    0.0627    0.2171 HC        1 <0>        0.06337
     27 H17         0.0188   -1.3697   -0.7646 H2        1 <0>        0.03486
     28 H18        -1.2898    0.3357   -1.5400 HO        1 <0>        0.40617
@<TRIPOS>BOND
     1    1    6 1
     2    2    6 1
     3    3    8 1
     4    4    8 1
     5    5    8 1
     6    6    7 1
     7    7    9 1
     8    7   10 1
     9    8   10 1
    10    1   11 1
    11    1   12 1
    12    1   13 1
    13    2   14 1
    14    2   15 1
    15    2   16 1
    16    3   17 1
    17    3   18 1
    18    3   19 1
    19    4   20 1
    20    4   21 1
    21    4   22 1
    22    5   23 1
    23    5   24 1
    24    5   25 1
    25    6   26 1
    26    7   27 1
    27    9   28 1
@<TRIPOS>SUBSTRUCTURE
     1 <0>         1 GROUP 0 A     ****
