@<TRIPOS>MOLECULE
AlkEthOH_c1093
   27    26     1     0     0
SMALL
USER_CHARGES

@<TRIPOS>ATOM
      1 C1         -0.4474    0.8277   -0.8199 CT        1 <0>       -0.09128
      2 C2         -0.3452   -0.1601   -7.2779 CT        1 <0>       -0.10703
      3 C3          1.5278    0.4932   -5.7232 CT        1 <0>       -0.10703
      4 C4         -0.6714   -2.8371   -4.2817 CT        1 <0>       -0.11901
      5 C5          0.0366    0.3647   -2.1852 CT        1 <0>       -0.07997
      6 C6         -0.5207   -1.0174   -2.5371 CT        1 <0>       -0.07738
      7 C7          0.4190   -0.5080   -6.0095 CT        1 <0>        0.13829
      8 C8         -0.0767   -1.4806   -3.9284 CT        1 <0>        0.13933
      9 O1         -0.4824   -0.5335   -4.9130 OS        1 <0>       -0.42183
     10 H1         -0.1532    0.1080   -0.0495 HC        1 <0>        0.03193
     11 H2         -1.5380    0.9192   -0.8004 HC        1 <0>        0.03193
     12 H3         -0.0159    1.7995   -0.5597 HC        1 <0>        0.03193
     13 H4         -0.7871    0.8390   -7.2139 HC        1 <0>        0.04211
     14 H5          0.3221   -0.1927   -8.1458 HC        1 <0>        0.04211
     15 H6         -1.1442   -0.8851   -7.4684 HC        1 <0>        0.04211
     16 H7          1.1306    1.5078   -5.6222 HC        1 <0>        0.04211
     17 H8          2.2665    0.4855   -6.5319 HC        1 <0>        0.04211
     18 H9          2.0650    0.2342   -4.8042 HC        1 <0>        0.04211
     19 H10        -1.7663   -2.8070   -4.2517 HC        1 <0>        0.04090
     20 H11        -0.3926   -3.1214   -5.3021 HC        1 <0>        0.04090
     21 H12        -0.3234   -3.6149   -3.5951 HC        1 <0>        0.04090
     22 H13        -0.2689    1.0993   -2.9388 HC        1 <0>        0.04443
     23 H14         1.1324    0.3343   -2.1862 HC        1 <0>        0.04443
     24 H15        -0.1919   -1.7458   -1.7860 HC        1 <0>        0.04746
     25 H16        -1.6164   -0.9734   -2.4955 HC        1 <0>        0.04746
     26 H17         0.8479   -1.5109   -6.1049 H1        1 <0>        0.03490
     27 H18         1.0160   -1.5470   -3.9681 H1        1 <0>        0.03608
@<TRIPOS>BOND
     1    1    5 1
     2    2    7 1
     3    3    7 1
     4    4    8 1
     5    5    6 1
     6    6    8 1
     7    7    9 1
     8    8    9 1
     9    1   10 1
    10    1   11 1
    11    1   12 1
    12    2   13 1
    13    2   14 1
    14    2   15 1
    15    3   16 1
    16    3   17 1
    17    3   18 1
    18    4   19 1
    19    4   20 1
    20    4   21 1
    21    5   22 1
    22    5   23 1
    23    6   24 1
    24    6   25 1
    25    7   26 1
    26    8   27 1
@<TRIPOS>SUBSTRUCTURE
     1 <0>         1 GROUP 0 A     ****
