@<TRIPOS>MOLECULE
AlkEthOH_c187
   23    22     1     0     0
SMALL
USER_CHARGES

@<TRIPOS>ATOM
      1 C1         -0.4645   -0.0646    0.9894 CT        1 <0>       -0.10911
      2 C2          1.6273    0.6910    2.1567 CT        1 <0>       -0.10911
      3 C3          1.2036   -1.7604    1.8118 CT        1 <0>       -0.10911
      4 C4         -2.4519   -0.7130    3.6306 CT        1 <0>        0.07763
      5 C5         -1.1377   -1.4334    3.3607 CT        1 <0>        0.33704
      6 C6          0.5609   -0.3988    2.0719 CT        1 <0>        0.15304
      7 O1         -3.5113   -1.6594    3.6594 OH        1 <0>       -0.61453
      8 O2         -0.9461   -2.3802    4.4059 OH        1 <0>       -0.59976
      9 O3         -0.1082   -0.4451    3.3327 OS        1 <0>       -0.40488
     10 H1         -1.2317   -0.8445    0.9253 HC        1 <0>        0.04567
     11 H2         -0.9578    0.8935    1.1830 HC        1 <0>        0.04567
     12 H3          0.0103   -0.0162    0.0027 HC        1 <0>        0.04567
     13 H4          2.3651    0.4554    2.9322 HC        1 <0>        0.04567
     14 H5          1.1816    1.6524    2.4367 HC        1 <0>        0.04567
     15 H6          2.1531    0.8168    1.2047 HC        1 <0>        0.04567
     16 H7          1.9391   -2.0003    2.5882 HC        1 <0>        0.04567
     17 H8          0.4566   -2.5604    1.7845 HC        1 <0>        0.04567
     18 H9          1.7476   -1.7592    0.8603 HC        1 <0>        0.04567
     19 H10        -2.4197   -0.1895    4.5918 H1        1 <0>        0.04502
     20 H11        -2.6642    0.0207    2.8452 H1        1 <0>        0.04502
     21 H12        -1.1923   -1.9499    2.3941 H2        1 <0>        0.04815
     22 H13        -4.3271   -1.1622    3.8331 HO        1 <0>        0.41023
     23 H14        -1.7000   -2.9934    4.3809 HO        1 <0>        0.41934
@<TRIPOS>BOND
     1    1    6 1
     2    2    6 1
     3    3    6 1
     4    4    5 1
     5    4    7 1
     6    5    8 1
     7    5    9 1
     8    6    9 1
     9    1   10 1
    10    1   11 1
    11    1   12 1
    12    2   13 1
    13    2   14 1
    14    2   15 1
    15    3   16 1
    16    3   17 1
    17    3   18 1
    18    4   19 1
    19    4   20 1
    20    5   21 1
    21    7   22 1
    22    8   23 1
@<TRIPOS>SUBSTRUCTURE
     1 <0>         1 GROUP 0 A     ****
