@<TRIPOS>MOLECULE
AlkEthOH_c366
   35    34     1     0     0
SMALL
USER_CHARGES

@<TRIPOS>ATOM
      1 C1          1.4882   -2.4889    0.7634 CT        1 <0>       -0.09136
      2 C2         -0.5978   -2.7447    2.0975 CT        1 <0>       -0.09136
      3 C3         -1.7222    1.7582   -0.5861 CT        1 <0>       -0.08910
      4 C4          0.1937    2.4799    0.8298 CT        1 <0>       -0.08910
      5 C5          0.3855    2.5365   -1.6454 CT        1 <0>       -0.08910
      6 C6         -0.0090   -0.5371   -1.7532 CT        1 <0>       -0.09294
      7 C7          1.9280    0.1867   -0.3725 CT        1 <0>       -0.09294
      8 C8         -0.1713   -0.5837    0.8019 CT        1 <0>       -0.06589
      9 C9         -0.0007   -2.1254    0.8292 CT        1 <0>       -0.06476
     10 C10        -0.1787    1.7106   -0.4617 CT        1 <0>       -0.04342
     11 C11         0.3775    0.1976   -0.4489 CT        1 <0>       -0.02542
     12 H1          2.0311   -2.0548    1.6099 HC        1 <0>        0.03267
     13 H2          1.9441   -2.1027   -0.1546 HC        1 <0>        0.03267
     14 H3          1.6342   -3.5743    0.7848 HC        1 <0>        0.03267
     15 H4         -0.1470   -2.3157    2.9992 HC        1 <0>        0.03267
     16 H5         -1.6776   -2.5924    2.1576 HC        1 <0>        0.03267
     17 H6         -0.4203   -3.8257    2.1184 HC        1 <0>        0.03267
     18 H7         -2.0745    1.2335   -1.4798 HC        1 <0>        0.03379
     19 H8         -2.2221    1.3241    0.2839 HC        1 <0>        0.03379
     20 H9         -2.0757    2.7932   -0.6710 HC        1 <0>        0.03379
     21 H10         1.2743    2.4972    0.9987 HC        1 <0>        0.03379
     22 H11        -0.1374    3.5242    0.7733 HC        1 <0>        0.03379
     23 H12        -0.2860    2.0494    1.7145 HC        1 <0>        0.03379
     24 H13         1.4786    2.5640   -1.6464 HC        1 <0>        0.03379
     25 H14         0.0789    2.1031   -2.6055 HC        1 <0>        0.03379
     26 H15         0.0149    3.5664   -1.6378 HC        1 <0>        0.03379
     27 H16        -1.0930   -0.5792   -1.8934 HC        1 <0>        0.03492
     28 H17         0.3903   -0.0283   -2.6372 HC        1 <0>        0.03492
     29 H18         0.3699   -1.5632   -1.7667 HC        1 <0>        0.03492
     30 H19         2.2956    0.6900    0.5274 HC        1 <0>        0.03492
     31 H20         2.3820    0.6934   -1.2291 HC        1 <0>        0.03492
     32 H21         2.3251   -0.8324   -0.3293 HC        1 <0>        0.03492
     33 H22        -1.2338   -0.3585    0.9441 HC        1 <0>        0.03959
     34 H23         0.3370   -0.1761    1.6855 HC        1 <0>        0.03959
     35 H24        -0.4827   -2.5861   -0.0381 HC        1 <0>        0.04656
@<TRIPOS>BOND
     1    1    9 1
     2    2    9 1
     3    3   10 1
     4    4   10 1
     5    5   10 1
     6    6   11 1
     7    7   11 1
     8    8    9 1
     9    8   11 1
    10   10   11 1
    11    1   12 1
    12    1   13 1
    13    1   14 1
    14    2   15 1
    15    2   16 1
    16    2   17 1
    17    3   18 1
    18    3   19 1
    19    3   20 1
    20    4   21 1
    21    4   22 1
    22    4   23 1
    23    5   24 1
    24    5   25 1
    25    5   26 1
    26    6   27 1
    27    6   28 1
    28    6   29 1
    29    7   30 1
    30    7   31 1
    31    7   32 1
    32    8   33 1
    33    8   34 1
    34    9   35 1
@<TRIPOS>SUBSTRUCTURE
     1 <0>         1 GROUP 0 A     ****
