@<TRIPOS>MOLECULE
AlkEthOH_r149
   20    20     1     0     0
SMALL
USER_CHARGES

@<TRIPOS>ATOM
      1 C1         -1.5708   -0.1456    0.6971 CT        1 <0>       -0.13614
      2 C2          1.4077    0.9900   -0.8028 CT        1 <0>       -0.13606
      3 C3         -1.4409   -0.9107   -0.6211 CT        1 <0>        0.13526
      4 C4         -0.4542   -0.4287    1.7035 CT        1 <0>        0.13526
      5 C5          0.1907    0.5428   -1.6118 CT        1 <0>        0.13526
      6 C6          1.1753    1.0233    0.7074 CT        1 <0>        0.13526
      7 O1         -0.1704   -0.7878   -1.2532 OS        1 <0>       -0.40424
      8 O2          0.8626   -0.2833    1.1809 OS        1 <0>       -0.40424
      9 H1         -1.5972    0.9285    0.4855 HC        1 <0>        0.05295
     10 H2         -2.5369   -0.3854    1.1568 HC        1 <0>        0.05295
     11 H3          2.2251    0.2858   -1.0038 HC        1 <0>        0.05295
     12 H4          1.7276    1.9807   -1.1437 HC        1 <0>        0.05295
     13 H5         -1.5964   -1.9784   -0.4319 H1        1 <0>        0.04098
     14 H6         -2.2221   -0.5944   -1.3221 H1        1 <0>        0.04098
     15 H7         -0.5639    0.2157    2.5836 H1        1 <0>        0.04098
     16 H8         -0.5418   -1.4630    2.0535 H1        1 <0>        0.04098
     17 H9         -0.6419    1.2475   -1.5091 H1        1 <0>        0.04098
     18 H10         0.4635    0.5248   -2.6726 H1        1 <0>        0.04098
     19 H11         2.1065    1.3268    1.1982 H1        1 <0>        0.04098
     20 H12         0.4159    1.7640    0.9814 H1        1 <0>        0.04098
@<TRIPOS>BOND
     1    1    3 1
     2    1    4 1
     3    2    5 1
     4    2    6 1
     5    3    7 1
     6    4    8 1
     7    5    7 1
     8    6    8 1
     9    1    9 1
    10    1   10 1
    11    2   11 1
    12    2   12 1
    13    3   13 1
    14    3   14 1
    15    4   15 1
    16    4   16 1
    17    5   17 1
    18    5   18 1
    19    6   19 1
    20    6   20 1
@<TRIPOS>SUBSTRUCTURE
     1 <0>         1 GROUP 0 A     ****
