@<TRIPOS>MOLECULE
AlkEthOH_r1028
   23    23     1     0     0
SMALL
USER_CHARGES

@<TRIPOS>ATOM
      1 C1          1.6122    0.4659   -0.2492 CT        1 <0>       -0.10706
      2 C2         -1.1300   -1.1259    0.0485 CT        1 <0>       -0.14119
      3 C3          1.6632    0.0468    1.2193 CT        1 <0>        0.13222
      4 C4         -0.0039   -1.6500    0.9270 CT        1 <0>        0.13594
      5 C5          0.2525    0.9228   -0.7979 CT        1 <0>       -0.04802
      6 C6         -0.6624   -0.2726   -1.1331 CT        1 <0>        0.14917
      7 C7         -0.4173    1.9859    0.0775 CT        1 <0>       -0.08984
      8 O1          0.5023   -0.5922    1.7270 OS        1 <0>       -0.41605
      9 O2         -1.8167    0.2194   -1.8190 OH        1 <0>       -0.60036
     10 H1          2.3487    1.2669   -0.3951 HC        1 <0>        0.04468
     11 H2          1.9741   -0.3679   -0.8652 HC        1 <0>        0.04468
     12 H3         -1.7023   -1.9749   -0.3471 HC        1 <0>        0.05700
     13 H4         -1.8390   -0.5479    0.6551 HC        1 <0>        0.05700
     14 H5          2.5284   -0.6044    1.3906 H1        1 <0>        0.04355
     15 H6          1.8218    0.9366    1.8390 H1        1 <0>        0.04355
     16 H7         -0.4206   -2.3916    1.6173 H1        1 <0>        0.04508
     17 H8          0.7853   -2.1496    0.3536 H1        1 <0>        0.04508
     18 H9          0.4609    1.4221   -1.7556 HC        1 <0>        0.05515
     19 H10        -0.1349   -0.9235   -1.8426 H1        1 <0>        0.02223
     20 H11        -0.6551    1.5615    1.0501 HC        1 <0>        0.04338
     21 H12        -1.3330    2.3277   -0.3993 HC        1 <0>        0.04338
     22 H13         0.2568    2.8292    0.2081 HC        1 <0>        0.04338
     23 H14        -2.3087   -0.5600   -2.1161 HO        1 <0>        0.39705
@<TRIPOS>BOND
     1    1    3 1
     2    1    5 1
     3    2    4 1
     4    2    6 1
     5    3    8 1
     6    4    8 1
     7    5    6 1
     8    5    7 1
     9    6    9 1
    10    1   10 1
    11    1   11 1
    12    2   12 1
    13    2   13 1
    14    3   14 1
    15    3   15 1
    16    4   16 1
    17    4   17 1
    18    5   18 1
    19    6   19 1
    20    7   20 1
    21    7   21 1
    22    7   22 1
    23    9   23 1
@<TRIPOS>SUBSTRUCTURE
     1 <0>         1 GROUP 0 A     ****
