@<TRIPOS>MOLECULE
AlkEthOH_c1015
   30    29     1     0     0
SMALL
USER_CHARGES

@<TRIPOS>ATOM
      1 C1         -0.3175    3.5555    0.8955 CT        1 <0>       -0.09142
      2 C2          1.5652   -1.5519    0.7784 CT        1 <0>       -0.08803
      3 C3          0.0338   -2.6831   -0.8342 CT        1 <0>       -0.08803
      4 C4         -0.8679   -1.7807    1.2927 CT        1 <0>       -0.08803
      5 C5          0.8409    0.1759   -1.6993 CT        1 <0>       -0.12312
      6 C6         -0.1947    2.4776   -0.1734 CT        1 <0>       -0.08086
      7 C7         -0.1798    1.0740    0.4523 CT        1 <0>       -0.11118
      8 C8          0.1518   -1.5017    0.1615 CT        1 <0>       -0.03626
      9 C9         -0.1471   -0.1146   -0.5532 CT        1 <0>        0.16587
     10 O1         -1.4562   -0.2176   -1.1396 OH        1 <0>       -0.60232
     11 H1         -1.2293    3.4203    1.4861 HC        1 <0>        0.03467
     12 H2         -0.3429    4.5534    0.4460 HC        1 <0>        0.03467
     13 H3          0.5382    3.5121    1.5767 HC        1 <0>        0.03467
     14 H4          1.7274   -0.7436    1.4975 HC        1 <0>        0.03727
     15 H5          2.3453   -1.4892    0.0132 HC        1 <0>        0.03727
     16 H6          1.7221   -2.4939    1.3178 HC        1 <0>        0.03727
     17 H7         -0.9478   -2.7160   -1.3165 HC        1 <0>        0.03727
     18 H8          0.7736   -2.5940   -1.6390 HC        1 <0>        0.03727
     19 H9          0.2056   -3.6466   -0.3427 HC        1 <0>        0.03727
     20 H10        -1.8980   -1.7598    0.9216 HC        1 <0>        0.03727
     21 H11        -0.7822   -1.0540    2.1068 HC        1 <0>        0.03727
     22 H12        -0.7018   -2.7689    1.7383 HC        1 <0>        0.03727
     23 H13         0.8762   -0.6513   -2.4168 HC        1 <0>        0.04288
     24 H14         0.5783    1.0867   -2.2450 HC        1 <0>        0.04288
     25 H15         1.8687    0.2670   -1.3363 HC        1 <0>        0.04288
     26 H16         0.7284    2.6557   -0.7341 HC        1 <0>        0.03545
     27 H17        -1.0324    2.5797   -0.8707 HC        1 <0>        0.03545
     28 H18         0.6797    1.0148    1.1289 HC        1 <0>        0.05364
     29 H19        -1.0854    0.9982    1.0654 HC        1 <0>        0.05364
     30 H20        -1.6238    0.6355   -1.5611 HO        1 <0>        0.39712
@<TRIPOS>BOND
     1    1    6 1
     2    2    8 1
     3    3    8 1
     4    4    8 1
     5    5    9 1
     6    6    7 1
     7    7    9 1
     8    8    9 1
     9    9   10 1
    10    1   11 1
    11    1   12 1
    12    1   13 1
    13    2   14 1
    14    2   15 1
    15    2   16 1
    16    3   17 1
    17    3   18 1
    18    3   19 1
    19    4   20 1
    20    4   21 1
    21    4   22 1
    22    5   23 1
    23    5   24 1
    24    5   25 1
    25    6   26 1
    26    6   27 1
    27    7   28 1
    28    7   29 1
    29   10   30 1
@<TRIPOS>SUBSTRUCTURE
     1 <0>         1 GROUP 0 A     ****
