@<TRIPOS>MOLECULE
AlkEthOH_c542
   28    27     1     0     0
SMALL
USER_CHARGES

@<TRIPOS>ATOM
      1 C1          4.1408   -2.4905    0.5532 CT        1 <0>       -0.10692
      2 C2          2.1641   -2.9886    2.0351 CT        1 <0>       -0.10692
      3 C3          0.6173   -0.5356   -0.7290 CT        1 <0>       -0.11373
      4 C4          4.0687    1.2252   -0.0873 CT        1 <0>       -0.12571
      5 C5          2.3485    1.7731   -1.8184 CT        1 <0>       -0.12571
      6 C6          2.6474   -2.2981    0.7689 CT        1 <0>        0.13466
      7 C7          2.1047   -0.3548   -0.4361 CT        1 <0>        0.15599
      8 C8          2.5832    1.1163   -0.4553 CT        1 <0>        0.15283
      9 O1          1.8431    1.8724    0.5075 OH        1 <0>       -0.57963
     10 O2          2.3632   -0.9116    0.8555 OS        1 <0>       -0.40721
     11 H1          4.7172   -2.1062    1.4002 HC        1 <0>        0.04202
     12 H2          4.3735   -3.5530    0.4247 HC        1 <0>        0.04202
     13 H3          4.4764   -1.9831   -0.3581 HC        1 <0>        0.04202
     14 H4          2.6933   -2.6162    2.9175 HC        1 <0>        0.04202
     15 H5          2.3213   -4.0701    1.9632 HC        1 <0>        0.04202
     16 H6          1.0890   -2.8362    2.1812 HC        1 <0>        0.04202
     17 H7         -0.0080    0.0269   -0.0308 HC        1 <0>        0.04628
     18 H8          0.3297   -1.5917   -0.6915 HC        1 <0>        0.04628
     19 H9          0.3853   -0.1888   -1.7424 HC        1 <0>        0.04628
     20 H10         4.2765    0.7649    0.8850 HC        1 <0>        0.04425
     21 H11         4.3698    2.2751    0.0067 HC        1 <0>        0.04425
     22 H12         4.7041    0.7496   -0.8414 HC        1 <0>        0.04425
     23 H13         1.2966    1.7155   -2.1169 HC        1 <0>        0.04425
     24 H14         2.5880    2.8424   -1.7805 HC        1 <0>        0.04425
     25 H15         2.9620    1.3112   -2.5986 HC        1 <0>        0.04425
     26 H16         2.1000   -2.6918   -0.0938 H1        1 <0>        0.03488
     27 H17         2.6878   -0.9363   -1.1604 H1        1 <0>        0.03454
     28 H18         2.1655    2.7831    0.4426 HO        1 <0>        0.39647
@<TRIPOS>BOND
     1    1    6 1
     2    2    6 1
     3    3    7 1
     4    4    8 1
     5    5    8 1
     6    6   10 1
     7    7    8 1
     8    7   10 1
     9    8    9 1
    10    1   11 1
    11    1   12 1
    12    1   13 1
    13    2   14 1
    14    2   15 1
    15    2   16 1
    16    3   17 1
    17    3   18 1
    18    3   19 1
    19    4   20 1
    20    4   21 1
    21    4   22 1
    22    5   23 1
    23    5   24 1
    24    5   25 1
    25    6   26 1
    26    7   27 1
    27    9   28 1
@<TRIPOS>SUBSTRUCTURE
     1 <0>         1 GROUP 0 A     ****
