@<TRIPOS>MOLECULE
AlkEthOH_r102
   20    20     1     0     0
SMALL
USER_CHARGES

@<TRIPOS>ATOM
      1 C1          1.1514   -1.1633    0.5986 CT        1 <0>       -0.06637
      2 C2         -0.1786   -0.9597    1.3318 CT        1 <0>       -0.10157
      3 C3          1.0227   -1.2956   -0.9245 CT        1 <0>       -0.10157
      4 C4         -0.4711    0.4971    1.6956 CT        1 <0>        0.13795
      5 C5          0.4915   -0.0596   -1.6442 CT        1 <0>        0.13795
      6 C6         -1.0054    1.3633   -0.4679 CT        1 <0>        0.32259
      7 O1         -0.1530    1.4294    0.6708 OS        1 <0>       -0.45066
      8 O2         -0.8576    0.1884   -1.2602 OS        1 <0>       -0.45066
      9 H1          1.8647   -0.3702    0.8517 HC        1 <0>        0.04124
     10 H2          1.5941   -2.0991    0.9635 HC        1 <0>        0.04124
     11 H3         -1.0046   -1.3742    0.7423 HC        1 <0>        0.04806
     12 H4         -0.1660   -1.5362    2.2655 HC        1 <0>        0.04806
     13 H5          2.0099   -1.5400   -1.3346 HC        1 <0>        0.04806
     14 H6          0.3659   -2.1467   -1.1434 HC        1 <0>        0.04806
     15 H7         -1.5154    0.6183    2.0062 H1        1 <0>        0.04453
     16 H8          0.1462    0.7697    2.5593 H1        1 <0>        0.04453
     17 H9          1.1402    0.8090   -1.4800 H1        1 <0>        0.04453
     18 H10         0.4849   -0.2573   -2.7217 H1        1 <0>        0.04453
     19 H11        -2.0525    1.4414   -0.1553 H2        1 <0>        0.05975
     20 H12        -0.7905    2.2341   -1.0970 H2        1 <0>        0.05975
@<TRIPOS>BOND
     1    1    2 1
     2    1    3 1
     3    2    4 1
     4    3    5 1
     5    4    7 1
     6    5    8 1
     7    6    7 1
     8    6    8 1
     9    1    9 1
    10    1   10 1
    11    2   11 1
    12    2   12 1
    13    3   13 1
    14    3   14 1
    15    4   15 1
    16    4   16 1
    17    5   17 1
    18    5   18 1
    19    6   19 1
    20    6   20 1
@<TRIPOS>SUBSTRUCTURE
     1 <0>         1 GROUP 0 A     ****
