@<TRIPOS>MOLECULE
AlkEthOH_r1083
   20    20     1     0     0
SMALL
USER_CHARGES

@<TRIPOS>ATOM
      1 C1          1.5365    1.1103   -0.0534 CT        1 <0>       -0.14771
      2 C2          1.7386   -0.0327   -1.0471 CT        1 <0>        0.12905
      3 C3          0.8406    0.6973    1.2351 CT        1 <0>        0.13554
      4 C4         -0.5915   -0.5947   -1.0282 CT        1 <0>        0.09800
      5 C5         -1.0931   -0.4719    0.4108 CT        1 <0>        0.11083
      6 C6         -2.6116   -0.3409    0.4359 CT        1 <0>       -0.09201
      7 O1          0.7548   -1.0574   -1.0141 OS        1 <0>       -0.42059
      8 O2         -0.5743    0.6899    1.0610 OS        1 <0>       -0.42224
      9 H1          2.5168    1.5473    0.1699 HC        1 <0>        0.05670
     10 H2          0.9458    1.8966   -0.5403 HC        1 <0>        0.05670
     11 H3          1.8083    0.3626   -2.0672 H1        1 <0>        0.04493
     12 H4          2.6968   -0.5210   -0.8371 H1        1 <0>        0.04493
     13 H5          1.1990   -0.2627    1.6238 H1        1 <0>        0.05304
     14 H6          1.0477    1.4542    1.9991 H1        1 <0>        0.05304
     15 H7         -1.1725   -1.3582   -1.5564 H1        1 <0>        0.05593
     16 H8         -0.6802    0.3436   -1.5884 H1        1 <0>        0.05593
     17 H9         -0.8013   -1.3530    0.9958 H1        1 <0>        0.05017
     18 H10        -2.9195    0.5307   -0.1413 HC        1 <0>        0.04592
     19 H11        -2.9582   -0.2264    1.4627 HC        1 <0>        0.04592
     20 H12        -3.0689   -1.2311    0.0045 HC        1 <0>        0.04592
@<TRIPOS>BOND
     1    1    2 1
     2    1    3 1
     3    2    7 1
     4    3    8 1
     5    4    5 1
     6    4    7 1
     7    5    6 1
     8    5    8 1
     9    1    9 1
    10    1   10 1
    11    2   11 1
    12    2   12 1
    13    3   13 1
    14    3   14 1
    15    4   15 1
    16    4   16 1
    17    5   17 1
    18    6   18 1
    19    6   19 1
    20    6   20 1
@<TRIPOS>SUBSTRUCTURE
     1 <0>         1 GROUP 0 A     ****
