@<TRIPOS>MOLECULE
AlkEthOH_r643
   30    30     1     0     0
SMALL
USER_CHARGES

@<TRIPOS>ATOM
      1 C1          1.6869    2.0811   -0.3661 CT        1 <0>       -0.12834
      2 C2          2.4678    0.7866   -0.5777 CT        1 <0>        0.13510
      3 C3          0.5195    1.9173    0.5987 CT        1 <0>        0.13794
      4 C4          1.1006   -1.1217   -0.0840 CT        1 <0>        0.13683
      5 C5         -0.4524   -1.1862   -0.1506 CT        1 <0>       -0.06144
      6 C6         -1.0991    0.0860    0.5266 CT        1 <0>        0.35751
      7 C7         -0.8764   -1.3145   -1.6322 CT        1 <0>       -0.08643
      8 C8         -0.8866   -2.4761    0.5851 CT        1 <0>       -0.08643
      9 C9         -2.6187    0.1715    0.3009 CT        1 <0>       -0.11762
     10 O1          1.6249   -0.2409   -1.0785 OS        1 <0>       -0.41555
     11 O2         -0.5714    1.2851   -0.0668 OS        1 <0>       -0.45583
     12 O3         -0.8952    0.0118    1.9446 OH        1 <0>       -0.62160
     13 H1          2.3741    2.8446    0.0152 HC        1 <0>        0.05875
     14 H2          1.3025    2.4230   -1.3348 HC        1 <0>        0.05875
     15 H3          3.2372    0.9679   -1.3362 H1        1 <0>        0.04217
     16 H4          2.9919    0.4749    0.3334 H1        1 <0>        0.04217
     17 H5          0.8496    1.4027    1.5057 H1        1 <0>        0.04295
     18 H6          0.1661    2.9098    0.8986 H1        1 <0>        0.04295
     19 H7          1.4376   -0.8661    0.9276 H1        1 <0>        0.04565
     20 H8          1.5224   -2.1086   -0.3101 H1        1 <0>        0.04565
     21 H9         -1.9566   -1.3598   -1.6844 HC        1 <0>        0.04265
     22 H10        -0.4464   -2.2193   -2.0421 HC        1 <0>        0.04265
     23 H11        -0.5140   -0.4514   -2.1758 HC        1 <0>        0.04265
     24 H12        -1.9660   -2.5487    0.5553 HC        1 <0>        0.04265
     25 H13        -0.5455   -2.4248    1.6108 HC        1 <0>        0.04265
     26 H14        -0.4425   -3.3284    0.0874 HC        1 <0>        0.04265
     27 H15        -3.0032    1.0618    0.7873 HC        1 <0>        0.05320
     28 H16        -3.0929   -0.7088    0.7220 HC        1 <0>        0.05320
     29 H17        -2.8199    0.2210   -0.7642 HC        1 <0>        0.05320
     30 H18        -1.3047    0.8058    2.3151 HO        1 <0>        0.41132
@<TRIPOS>BOND
     1    1    2 1
     2    1    3 1
     3    2   10 1
     4    3   11 1
     5    4    5 1
     6    4   10 1
     7    5    6 1
     8    5    7 1
     9    5    8 1
    10    6    9 1
    11    6   11 1
    12    6   12 1
    13    1   13 1
    14    1   14 1
    15    2   15 1
    16    2   16 1
    17    3   17 1
    18    3   18 1
    19    4   19 1
    20    4   20 1
    21    7   21 1
    22    7   22 1
    23    7   23 1
    24    8   24 1
    25    8   25 1
    26    8   26 1
    27    9   27 1
    28    9   28 1
    29    9   29 1
    30   12   30 1
@<TRIPOS>SUBSTRUCTURE
     1 <0>         1 GROUP 0 A     ****
