@<TRIPOS>MOLECULE
AlkEthOH_r315
   28    28     1     0     0
SMALL
USER_CHARGES

@<TRIPOS>ATOM
      1 C1         -1.0400   -0.3458   -0.0180 CT        1 <0>       -0.07547
      2 C2         -1.1260   -1.7384    0.5896 CT        1 <0>       -0.09829
      3 C3         -1.5405   -0.3858   -1.4546 CT        1 <0>       -0.09829
      4 C4         -2.5347   -2.3420    0.4727 CT        1 <0>        0.15942
      5 C5         -2.9485   -0.9920   -1.5671 CT        1 <0>        0.15942
      6 C6         -2.4453   -3.8558    0.7353 CT        1 <0>       -0.10161
      7 C7         -3.5004   -1.7549    1.5103 CT        1 <0>       -0.10161
      8 C8         -3.2112   -1.3580   -3.0387 CT        1 <0>       -0.10161
      9 C9         -4.0382    0.0010   -1.1422 CT        1 <0>       -0.10161
     10 O1         -3.0586   -2.2306   -0.8559 OS        1 <0>       -0.41899
     11 H1         -1.6184    0.3712    0.5735 HC        1 <0>        0.04296
     12 H2         -0.0003    0.0006   -0.0005 HC        1 <0>        0.04296
     13 H3         -0.4110   -2.3757    0.0518 HC        1 <0>        0.04826
     14 H4         -0.7979   -1.7132    1.6356 HC        1 <0>        0.04826
     15 H5         -1.5130    0.6196   -1.8914 HC        1 <0>        0.04826
     16 H6         -0.8341   -0.9978   -2.0318 HC        1 <0>        0.04826
     17 H7         -3.4356   -4.2916    0.6550 HC        1 <0>        0.04164
     18 H8         -2.0520   -4.0229    1.7324 HC        1 <0>        0.04164
     19 H9         -1.7862   -4.3075    0.0015 HC        1 <0>        0.04164
     20 H10        -4.4802   -2.2088    1.3907 HC        1 <0>        0.04164
     21 H11        -3.5788   -0.6811    1.3651 HC        1 <0>        0.04164
     22 H12        -3.1261   -1.9590    2.5096 HC        1 <0>        0.04164
     23 H13        -4.2035   -1.7870   -3.1286 HC        1 <0>        0.04164
     24 H14        -2.4698   -2.0794   -3.3653 HC        1 <0>        0.04164
     25 H15        -3.1433   -0.4624   -3.6472 HC        1 <0>        0.04164
     26 H16        -5.0132   -0.4687   -1.2375 HC        1 <0>        0.04164
     27 H17        -3.9957    0.8798   -1.7795 HC        1 <0>        0.04164
     28 H18        -3.8772    0.2948   -0.1087 HC        1 <0>        0.04164
@<TRIPOS>BOND
     1    1    2 1
     2    1    3 1
     3    2    4 1
     4    3    5 1
     5    4    6 1
     6    4    7 1
     7    4   10 1
     8    5    8 1
     9    5    9 1
    10    5   10 1
    11    1   11 1
    12    1   12 1
    13    2   13 1
    14    2   14 1
    15    3   15 1
    16    3   16 1
    17    6   17 1
    18    6   18 1
    19    6   19 1
    20    7   20 1
    21    7   21 1
    22    7   22 1
    23    8   23 1
    24    8   24 1
    25    8   25 1
    26    9   26 1
    27    9   27 1
    28    9   28 1
@<TRIPOS>SUBSTRUCTURE
     1 <0>         1 GROUP 0 A     ****
