@<TRIPOS>MOLECULE
AlkEthOH_c160
   28    27     1     0     0
SMALL
USER_CHARGES

@<TRIPOS>ATOM
      1 C1         -0.1360    1.2393    2.2151 CT        1 <0>       -0.08451
      2 C2         -0.5962   -0.6484    0.6546 CT        1 <0>       -0.08451
      3 C3          0.7690   -1.0126    2.7272 CT        1 <0>       -0.08451
      4 C4         -3.1200   -1.2961    4.9092 CT        1 <0>       -0.12535
      5 C5         -1.7446   -0.5258    2.9668 CT        1 <0>       -0.05297
      6 C6         -1.0195   -0.0284    5.4199 CT        1 <0>        0.10419
      7 C7         -0.4459   -0.2754    2.1358 CT        1 <0>       -0.04557
      8 C8         -1.6813   -1.0040    4.4419 CT        1 <0>        0.15976
      9 O1         -1.7687    1.1708    5.5303 OH        1 <0>       -0.59985
     10 O2         -0.9737   -2.2453    4.4962 OH        1 <0>       -0.59575
     11 H1         -0.0178    1.5642    3.2552 HC        1 <0>        0.03385
     12 H2          0.7894    1.4866    1.6822 HC        1 <0>        0.03385
     13 H3         -0.9410    1.8334    1.7675 HC        1 <0>        0.03385
     14 H4         -0.8175   -1.7145    0.5350 HC        1 <0>        0.03385
     15 H5         -1.4167   -0.0893    0.1894 HC        1 <0>        0.03385
     16 H6          0.3079   -0.4180    0.0829 HC        1 <0>        0.03385
     17 H7          0.6241   -2.0983    2.7059 HC        1 <0>        0.03385
     18 H8          0.9310   -0.7247    3.7729 HC        1 <0>        0.03385
     19 H9          1.6959   -0.7838    2.1983 HC        1 <0>        0.03385
     20 H10        -3.1295   -1.6388    5.9505 HC        1 <0>        0.04719
     21 H11        -3.6043   -2.0577    4.2895 HC        1 <0>        0.04719
     22 H12        -3.7330   -0.3876    4.8822 HC        1 <0>        0.04719
     23 H13        -2.3591    0.3842    2.9170 HC        1 <0>        0.05382
     24 H14        -2.3149   -1.2958    2.4250 HC        1 <0>        0.05382
     25 H15         0.0063    0.2035    5.1201 H1        1 <0>        0.02896
     26 H16        -0.9429   -0.4801    6.4165 H1        1 <0>        0.02896
     27 H17        -1.2983    1.7415    6.1606 HO        1 <0>        0.40211
     28 H18        -1.0084   -2.5375    5.4189 HO        1 <0>        0.39518
@<TRIPOS>BOND
     1    1    7 1
     2    2    7 1
     3    3    7 1
     4    4    8 1
     5    5    7 1
     6    5    8 1
     7    6    8 1
     8    6    9 1
     9    8   10 1
    10    1   11 1
    11    1   12 1
    12    1   13 1
    13    2   14 1
    14    2   15 1
    15    2   16 1
    16    3   17 1
    17    3   18 1
    18    3   19 1
    19    4   20 1
    20    4   21 1
    21    4   22 1
    22    5   23 1
    23    5   24 1
    24    6   25 1
    25    6   26 1
    26    9   27 1
    27   10   28 1
@<TRIPOS>SUBSTRUCTURE
     1 <0>         1 GROUP 0 A     ****
