@<TRIPOS>MOLECULE
AlkEthOH_r268
   31    31     1     0     0
SMALL
USER_CHARGES

@<TRIPOS>ATOM
      1 C1          0.6642    1.4057   -2.3159 CT        1 <0>       -0.08485
      2 C2          0.4150   -0.0401   -2.7878 CT        1 <0>       -0.08485
      3 C3          0.3794   -0.4373    1.4582 CT        1 <0>       -0.17484
      4 C4          1.0031    1.5574   -0.8334 CT        1 <0>        0.14833
      5 C5         -0.4438   -0.8832   -1.8462 CT        1 <0>        0.14833
      6 C6         -0.0647    1.0385    1.2787 CT        1 <0>        0.36884
      7 C7         -0.2105   -1.5059    0.5050 CT        1 <0>        0.36884
      8 C8         -1.4302    1.2849    1.9318 CT        1 <0>       -0.12613
      9 C9          0.2390   -2.8917    0.9844 CT        1 <0>       -0.12613
     10 O1         -0.2044    1.4068   -0.0917 OS        1 <0>       -0.42436
     11 O2          0.3909   -1.3247   -0.7818 OS        1 <0>       -0.42436
     12 O3          0.8940    1.8550    1.9639 OH        1 <0>       -0.61919
     13 O4         -1.6319   -1.4654    0.5349 OH        1 <0>       -0.61919
     14 H1          1.4798    1.8233   -2.9179 HC        1 <0>        0.04828
     15 H2         -0.2349    1.9949   -2.5371 HC        1 <0>        0.04828
     16 H3         -0.0652    0.0046   -3.7724 HC        1 <0>        0.04828
     17 H4          1.3879   -0.5292   -2.9237 HC        1 <0>        0.04828
     18 H5          1.4745   -0.4708    1.3638 HC        1 <0>        0.06231
     19 H6          0.1732   -0.7205    2.4999 HC        1 <0>        0.06231
     20 H7          1.7733    0.8394   -0.5353 H1        1 <0>        0.04962
     21 H8          1.3860    2.5666   -0.6473 H1        1 <0>        0.04962
     22 H9         -1.3126   -0.3089   -1.5099 H1        1 <0>        0.04962
     23 H10        -0.8057   -1.7741   -2.3699 H1        1 <0>        0.04962
     24 H11        -1.7172    2.3236    1.7919 HC        1 <0>        0.05220
     25 H12        -1.3687    1.0669    2.9945 HC        1 <0>        0.05220
     26 H13        -2.1739    0.6393    1.4725 HC        1 <0>        0.05220
     27 H14        -0.1677   -3.6532    0.3246 HC        1 <0>        0.05220
     28 H15        -0.1210   -3.0598    1.9958 HC        1 <0>        0.05220
     29 H16         1.3242   -2.9450    0.9729 HC        1 <0>        0.05220
     30 H17         0.8697    1.5765    2.8900 HO        1 <0>        0.41007
     31 H18        -1.8971   -1.6456    1.4510 HO        1 <0>        0.41007
@<TRIPOS>BOND
     1    1    2 1
     2    1    4 1
     3    2    5 1
     4    3    6 1
     5    3    7 1
     6    4   10 1
     7    5   11 1
     8    6    8 1
     9    6   10 1
    10    6   12 1
    11    7    9 1
    12    7   11 1
    13    7   13 1
    14    1   14 1
    15    1   15 1
    16    2   16 1
    17    2   17 1
    18    3   18 1
    19    3   19 1
    20    4   20 1
    21    4   21 1
    22    5   22 1
    23    5   23 1
    24    8   24 1
    25    8   25 1
    26    8   26 1
    27    9   27 1
    28    9   28 1
    29    9   29 1
    30   12   30 1
    31   13   31 1
@<TRIPOS>SUBSTRUCTURE
     1 <0>         1 GROUP 0 A     ****
