@<TRIPOS>MOLECULE
AlkEthOH_c1195
   29    28     1     0     0
SMALL
USER_CHARGES

@<TRIPOS>ATOM
      1 C1          1.4807   -2.4169    2.5134 CT        1 <0>       -0.09711
      2 C2         -1.9526   -0.8100   -0.2684 CT        1 <0>       -0.13009
      3 C3         -2.2406    1.6245    0.1476 CT        1 <0>       -0.13009
      4 C4          2.3066    0.8027   -0.2070 CT        1 <0>       -0.10391
      5 C5          0.9838   -0.5264   -1.8179 CT        1 <0>       -0.10391
      6 C6          1.3571   -1.0708    1.8321 CT        1 <0>        0.13547
      7 C7         -1.3539    0.5720   -0.5290 CT        1 <0>        0.36203
      8 C8          1.0542   -0.0793   -0.3522 CT        1 <0>        0.35939
      9 O1         -1.3875    0.8106   -1.9364 OH        1 <0>       -0.62551
     10 O2          1.1870   -1.2726    0.4357 OS        1 <0>       -0.44883
     11 O3         -0.0493    0.7526    0.0307 OS        1 <0>       -0.44523
     12 H1          0.5814   -3.0186    2.3548 HC        1 <0>        0.04176
     13 H2          2.3461   -2.9663    2.1286 HC        1 <0>        0.04176
     14 H3          1.6364   -2.2915    3.5901 HC        1 <0>        0.04176
     15 H4         -1.3556   -1.6014   -0.7317 HC        1 <0>        0.05158
     16 H5         -2.9530   -0.8921   -0.7090 HC        1 <0>        0.05158
     17 H6         -2.0228   -1.0241    0.8023 HC        1 <0>        0.05158
     18 H7         -1.8498    2.6354   -0.0123 HC        1 <0>        0.05158
     19 H8         -3.2530    1.6028   -0.2733 HC        1 <0>        0.05158
     20 H9         -2.3336    1.4400    1.2233 HC        1 <0>        0.05158
     21 H10         2.4189    1.1592    0.8233 HC        1 <0>        0.05375
     22 H11         2.2722    1.6641   -0.8825 HC        1 <0>        0.05375
     23 H12         3.2183    0.2383   -0.4337 HC        1 <0>        0.05375
     24 H13         0.1126   -1.1632   -2.0038 HC        1 <0>        0.05375
     25 H14         0.9386    0.3391   -2.4891 HC        1 <0>        0.05375
     26 H15         1.8790   -1.0837   -2.1116 HC        1 <0>        0.05375
     27 H16         2.2596   -0.4741    1.9946 H1        1 <0>        0.03145
     28 H17         0.4915   -0.5235    2.2172 H1        1 <0>        0.03145
     29 H18        -2.3123    0.7765   -2.2330 HO        1 <0>        0.40763
@<TRIPOS>BOND
     1    1    6 1
     2    2    7 1
     3    3    7 1
     4    4    8 1
     5    5    8 1
     6    6   10 1
     7    7    9 1
     8    7   11 1
     9    8   10 1
    10    8   11 1
    11    1   12 1
    12    1   13 1
    13    1   14 1
    14    2   15 1
    15    2   16 1
    16    2   17 1
    17    3   18 1
    18    3   19 1
    19    3   20 1
    20    4   21 1
    21    4   22 1
    22    4   23 1
    23    5   24 1
    24    5   25 1
    25    5   26 1
    26    6   27 1
    27    6   28 1
    28    9   29 1
@<TRIPOS>SUBSTRUCTURE
     1 <0>         1 GROUP 0 A     ****
