@<TRIPOS>MOLECULE
AlkEthOH_r402
   30    30     1     0     0
SMALL
USER_CHARGES

@<TRIPOS>ATOM
      1 C1         -1.3692    0.1166   -2.0580 CT        1 <0>       -0.06763
      2 C2         -1.4441   -1.1026   -1.1354 CT        1 <0>       -0.07036
      3 C3         -1.6905    1.4513   -1.3768 CT        1 <0>       -0.09052
      4 C4         -0.1037   -1.6675   -0.6412 CT        1 <0>       -0.09437
      5 C5         -0.7600    1.8469   -0.2372 CT        1 <0>        0.13605
      6 C6          0.9241   -0.7209    0.0227 CT        1 <0>        0.15527
      7 C7          0.3558    0.1912    1.1623 CT        1 <0>        0.36212
      8 C8          2.1139   -1.5749    0.5127 CT        1 <0>       -0.12711
      9 C9         -0.0455   -0.6317    2.3981 CT        1 <0>       -0.11505
     10 O1         -0.8430    0.8866    0.8026 OS        1 <0>       -0.45769
     11 O2          1.4825    0.0955   -1.0168 OH        1 <0>       -0.58471
     12 O3          1.3797    1.1096    1.5670 OH        1 <0>       -0.60842
     13 H1         -0.4094    0.1677   -2.5812 HC        1 <0>        0.03935
     14 H2         -2.1224   -0.0183   -2.8462 HC        1 <0>        0.03935
     15 H3         -2.1154   -0.9164   -0.2894 HC        1 <0>        0.04532
     16 H4         -1.9270   -1.9124   -1.7000 HC        1 <0>        0.04532
     17 H5         -1.6792    2.2439   -2.1342 HC        1 <0>        0.04150
     18 H6         -2.7164    1.3974   -0.9903 HC        1 <0>        0.04150
     19 H7         -0.3367   -2.4887    0.0491 HC        1 <0>        0.04004
     20 H8          0.3793   -2.1342   -1.5118 HC        1 <0>        0.04004
     21 H9          0.2578    2.0314   -0.5876 H1        1 <0>        0.05835
     22 H10        -1.1133    2.7961    0.1814 H1        1 <0>        0.05835
     23 H11         2.8439   -0.9261    0.9809 HC        1 <0>        0.04827
     24 H12         2.5583   -2.0796   -0.3364 HC        1 <0>        0.04827
     25 H13         1.7532   -2.3032    1.2287 HC        1 <0>        0.04827
     26 H14        -0.4330    0.0345    3.1621 HC        1 <0>        0.05373
     27 H15         0.8256   -1.1554    2.7783 HC        1 <0>        0.05373
     28 H16        -0.8097   -1.3496    2.1180 HC        1 <0>        0.05373
     29 H17         1.8983   -0.5151   -1.6408 HO        1 <0>        0.39750
     30 H18         0.9914    1.6516    2.2678 HO        1 <0>        0.40980
@<TRIPOS>BOND
     1    1    2 1
     2    1    3 1
     3    2    4 1
     4    3    5 1
     5    4    6 1
     6    5   10 1
     7    6    7 1
     8    6    8 1
     9    6   11 1
    10    7    9 1
    11    7   10 1
    12    7   12 1
    13    1   13 1
    14    1   14 1
    15    2   15 1
    16    2   16 1
    17    3   17 1
    18    3   18 1
    19    4   19 1
    20    4   20 1
    21    5   21 1
    22    5   22 1
    23    8   23 1
    24    8   24 1
    25    8   25 1
    26    9   26 1
    27    9   27 1
    28    9   28 1
    29   11   29 1
    30   12   30 1
@<TRIPOS>SUBSTRUCTURE
     1 <0>         1 GROUP 0 A     ****
