@<TRIPOS>MOLECULE
AlkEthOH_r30
   21    21     1     0     0
SMALL
USER_CHARGES

@<TRIPOS>ATOM
      1 C1          1.3487    0.9447    0.7363 CT        1 <0>       -0.10945
      2 C2          0.4457    1.5638   -0.3321 CT        1 <0>       -0.11299
      3 C3          2.0002   -0.3862    0.3565 CT        1 <0>        0.13069
      4 C4          0.0997   -1.7525    0.8949 CT        1 <0>        0.09116
      5 C5         -1.2694   -1.3042    0.3925 CT        1 <0>        0.11910
      6 C6         -0.7221    0.6932   -0.7992 CT        1 <0>        0.32397
      7 O1          1.1006   -1.4091   -0.0589 OS        1 <0>       -0.42911
      8 O2         -1.3786    0.1182    0.3300 OS        1 <0>       -0.44922
      9 O3         -1.6248    1.5320   -1.5201 OH        1 <0>       -0.59974
     10 H1          2.1450    1.6609    0.9744 HC        1 <0>        0.05238
     11 H2          0.7698    0.8283    1.6596 HC        1 <0>        0.05238
     12 H3          0.0458    2.5013    0.0778 HC        1 <0>        0.05319
     13 H4          1.0421    1.8608   -1.2040 HC        1 <0>        0.05319
     14 H5          2.6947   -0.2207   -0.4743 H1        1 <0>        0.04889
     15 H6          2.5958   -0.7631    1.1962 H1        1 <0>        0.04889
     16 H7          0.3207   -1.3401    1.8852 H1        1 <0>        0.05136
     17 H8          0.1028   -2.8437    0.9851 H1        1 <0>        0.05136
     18 H9         -1.5001   -1.7368   -0.5881 H1        1 <0>        0.05752
     19 H10        -2.0346   -1.6515    1.0943 H1        1 <0>        0.05752
     20 H11        -0.3643   -0.0649   -1.5056 H2        1 <0>        0.10240
     21 H12        -1.1246    1.8945   -2.2668 HO        1 <0>        0.40651
@<TRIPOS>BOND
     1    1    2 1
     2    1    3 1
     3    2    6 1
     4    3    7 1
     5    4    5 1
     6    4    7 1
     7    5    8 1
     8    6    8 1
     9    6    9 1
    10    1   10 1
    11    1   11 1
    12    2   12 1
    13    2   13 1
    14    3   14 1
    15    3   15 1
    16    4   16 1
    17    4   17 1
    18    5   18 1
    19    5   19 1
    20    6   20 1
    21    9   21 1
@<TRIPOS>SUBSTRUCTURE
     1 <0>         1 GROUP 0 A     ****
