@<TRIPOS>MOLECULE
AlkEthOH_c1284
    6     5     1     0     0
SMALL
USER_CHARGES

@<TRIPOS>ATOM
      1 C1          0.2832    0.7683    0.7238 CT        1 <0>        0.11663
      2 O1         -0.3112    2.0013    0.3621 OH        1 <0>       -0.59849
      3 H1         -0.0653    0.4722    1.7163 H1        1 <0>        0.02846
      4 H2          1.3711    0.8735    0.7244 H1        1 <0>        0.02846
      5 H3         -0.0069    0.0068   -0.0039 H1        1 <0>        0.02846
      6 H4          0.0219    2.2303   -0.5224 HO        1 <0>        0.39648
@<TRIPOS>BOND
     1    1    2 1
     2    1    3 1
     3    1    4 1
     4    1    5 1
     5    2    6 1
@<TRIPOS>SUBSTRUCTURE
     1 <0>         1 GROUP 0 A     ****
