@<TRIPOS>MOLECULE
AlkEthOH_r143
   14    14     1     0     0
SMALL
USER_CHARGES

@<TRIPOS>ATOM
      1 C1          0.7023   -0.7970    0.2604 CT        1 <0>       -0.11283
      2 C2          1.1998   -1.5333   -0.9675 CT        1 <0>        0.12487
      3 C3          1.0378   -3.0681    0.7829 CT        1 <0>        0.09346
      4 C4          0.1018   -1.9136    1.0780 CT        1 <0>        0.11324
      5 O1          1.5466   -2.8590   -0.5457 OS        1 <0>       -0.42332
      6 O2         -1.2004   -2.2054    0.5828 OH        1 <0>       -0.59840
      7 H1          1.5537   -0.3603    0.7952 HC        1 <0>        0.06849
      8 H2          0.0001   -0.0003   -0.0004 HC        1 <0>        0.06849
      9 H3          0.4150   -1.6181   -1.7268 H1        1 <0>        0.05139
     10 H4          2.0703   -1.0506   -1.4206 H1        1 <0>        0.05139
     11 H5          1.8971   -3.0631    1.4615 H1        1 <0>        0.05116
     12 H6          0.5512   -4.0467    0.8227 H1        1 <0>        0.05116
     13 H7          0.0215   -1.6814    2.1433 H1        1 <0>        0.05552
     14 H8         -1.5516   -2.9246    1.1313 HO        1 <0>        0.40538
@<TRIPOS>BOND
     1    1    2 1
     2    1    4 1
     3    2    5 1
     4    3    4 1
     5    3    5 1
     6    4    6 1
     7    1    7 1
     8    1    8 1
     9    2    9 1
    10    2   10 1
    11    3   11 1
    12    3   12 1
    13    4   13 1
    14    6   14 1
@<TRIPOS>SUBSTRUCTURE
     1 <0>         1 GROUP 0 A     ****
