@<TRIPOS>MOLECULE
AlkEthOH_c1176
   21    20     1     0     0
SMALL
USER_CHARGES

@<TRIPOS>ATOM
      1 C1         -1.7999   -1.4378    4.6950 CT        1 <0>       -0.09624
      2 C2         -0.4645   -0.0646    0.9894 CT        1 <0>       -0.10740
      3 C3          1.6273    0.6910    2.1567 CT        1 <0>       -0.10740
      4 C4          1.2036   -1.7604    1.8118 CT        1 <0>       -0.10740
      5 C5         -1.1266   -1.4328    3.3392 CT        1 <0>        0.12906
      6 C6          0.5609   -0.3988    2.0719 CT        1 <0>        0.15036
      7 O1         -0.1082   -0.4451    3.3327 OS        1 <0>       -0.42362
      8 H1         -1.0822   -1.6715    5.4863 HC        1 <0>        0.04317
      9 H2         -2.2526   -0.4631    4.9048 HC        1 <0>        0.04317
     10 H3         -2.6080   -2.1764    4.7217 HC        1 <0>        0.04317
     11 H4         -1.2317   -0.8445    0.9253 HC        1 <0>        0.04277
     12 H5         -0.9578    0.8935    1.1830 HC        1 <0>        0.04277
     13 H6          0.0103   -0.0162    0.0027 HC        1 <0>        0.04277
     14 H7          2.3651    0.4554    2.9322 HC        1 <0>        0.04277
     15 H8          1.1816    1.6524    2.4367 HC        1 <0>        0.04277
     16 H9          2.1531    0.8168    1.2047 HC        1 <0>        0.04277
     17 H10         1.9391   -2.0003    2.5882 HC        1 <0>        0.04277
     18 H11         0.4566   -2.5604    1.7845 HC        1 <0>        0.04277
     19 H12         1.7476   -1.7592    0.8603 HC        1 <0>        0.04277
     20 H13        -1.8498   -1.1985    2.5524 H1        1 <0>        0.02410
     21 H14        -0.6741   -2.4070    3.1316 H1        1 <0>        0.02410
@<TRIPOS>BOND
     1    1    5 1
     2    2    6 1
     3    3    6 1
     4    4    6 1
     5    5    7 1
     6    6    7 1
     7    1    8 1
     8    1    9 1
     9    1   10 1
    10    2   11 1
    11    2   12 1
    12    2   13 1
    13    3   14 1
    14    3   15 1
    15    3   16 1
    16    4   17 1
    17    4   18 1
    18    4   19 1
    19    5   20 1
    20    5   21 1
@<TRIPOS>SUBSTRUCTURE
     1 <0>         1 GROUP 0 A     ****
