@<TRIPOS>MOLECULE
AlkEthOH_r473
   24    24     1     0     0
SMALL
USER_CHARGES

@<TRIPOS>ATOM
      1 C1         -0.3895    2.0511    0.5150 CT        1 <0>       -0.10786
      2 C2          0.2213    0.9516    1.3787 CT        1 <0>       -0.10385
      3 C3         -1.4079    1.4704   -0.4506 CT        1 <0>        0.13753
      4 C4          0.7531   -0.2087    0.5162 CT        1 <0>        0.14918
      5 C5         -0.3239   -0.6712   -0.5099 CT        1 <0>        0.35579
      6 C6          1.2425   -1.3355    1.4355 CT        1 <0>       -0.11679
      7 C7          0.2275   -1.6348   -1.5663 CT        1 <0>       -0.10377
      8 O1         -0.8234    0.4520   -1.2578 OS        1 <0>       -0.43983
      9 O2          1.8914    0.3052   -0.1902 OH        1 <0>       -0.59063
     10 O3         -1.3912   -1.3800    0.1293 OH        1 <0>       -0.62908
     11 H1         -0.8574    2.8126    1.1479 HC        1 <0>        0.05365
     12 H2          0.4088    2.5432   -0.0537 HC        1 <0>        0.05365
     13 H3          1.0308    1.3875    1.9773 HC        1 <0>        0.05388
     14 H4         -0.5407    0.5835    2.0773 HC        1 <0>        0.05388
     15 H5         -2.2797    1.0708    0.0797 H1        1 <0>        0.04877
     16 H6         -1.7698    2.2564   -1.1214 H1        1 <0>        0.04877
     17 H7          1.6188   -2.1568    0.8323 HC        1 <0>        0.04861
     18 H8          0.4175   -1.6852    2.0496 HC        1 <0>        0.04861
     19 H9          2.0371   -0.9614    2.0747 HC        1 <0>        0.04861
     20 H10        -0.5687   -1.9191   -2.2490 HC        1 <0>        0.05732
     21 H11         0.6194   -2.5229   -1.0780 HC        1 <0>        0.05732
     22 H12         1.0234   -1.1467   -2.1223 HC        1 <0>        0.05732
     23 H13         2.5225    0.5840    0.4875 HO        1 <0>        0.40156
     24 H14        -2.0077   -1.6272   -0.5741 HO        1 <0>        0.41736
@<TRIPOS>BOND
     1    1    2 1
     2    1    3 1
     3    2    4 1
     4    3    8 1
     5    4    5 1
     6    4    6 1
     7    4    9 1
     8    5    7 1
     9    5    8 1
    10    5   10 1
    11    1   11 1
    12    1   12 1
    13    2   13 1
    14    2   14 1
    15    3   15 1
    16    3   16 1
    17    6   17 1
    18    6   18 1
    19    6   19 1
    20    7   20 1
    21    7   21 1
    22    7   22 1
    23    9   23 1
    24   10   24 1
@<TRIPOS>SUBSTRUCTURE
     1 <0>         1 GROUP 0 A     ****
