@<TRIPOS>MOLECULE
AlkEthOH_c616
   34    33     1     0     0
SMALL
USER_CHARGES

@<TRIPOS>ATOM
      1 C1         -0.5249    1.5842    3.4259 CT        1 <0>       -0.13122
      2 C2         -0.4023   -2.1510    0.1584 CT        1 <0>       -0.08330
      3 C3         -1.8032   -0.2539   -0.6632 CT        1 <0>       -0.08330
      4 C4          2.8109    0.3699   -1.7575 CT        1 <0>       -0.12488
      5 C5          0.8239   -0.6470   -2.8627 CT        1 <0>       -0.12488
      6 C6         -0.7667   -0.1978    1.6610 CT        1 <0>       -0.07245
      7 C7          0.7217    0.1031   -0.3897 CT        1 <0>       -0.05534
      8 C8         -0.8818    1.3047    1.9690 CT        1 <0>        0.13887
      9 C9         -0.5530   -0.6162    0.1613 CT        1 <0>       -0.03536
     10 C10         1.5677   -0.5082   -1.5372 CT        1 <0>        0.15562
     11 O1         -2.2164    1.7460    1.7492 OH        1 <0>       -0.60222
     12 O2          2.0381   -1.8053   -1.1679 OH        1 <0>       -0.59669
     13 H1         -1.1672    1.0201    4.1090 HC        1 <0>        0.04220
     14 H2         -0.6180    2.6517    3.6543 HC        1 <0>        0.04220
     15 H3          0.5170    1.3104    3.6245 HC        1 <0>        0.04220
     16 H4          0.4761   -2.4637    0.7337 HC        1 <0>        0.03729
     17 H5         -0.3095   -2.5542   -0.8542 HC        1 <0>        0.03729
     18 H6         -1.2785   -2.6321    0.6092 HC        1 <0>        0.03729
     19 H7         -1.9546    0.8314   -0.6916 HC        1 <0>        0.03729
     20 H8         -1.7275   -0.6113   -1.6949 HC        1 <0>        0.03729
     21 H9         -2.7165   -0.6791   -0.2402 HC        1 <0>        0.03729
     22 H10         3.3815    0.5006   -0.8321 HC        1 <0>        0.04189
     23 H11         2.5299    1.3595   -2.1358 HC        1 <0>        0.04189
     24 H12         3.4724   -0.0697   -2.5130 HC        1 <0>        0.04189
     25 H13        -0.0721   -1.2649   -2.7603 HC        1 <0>        0.04189
     26 H14         0.5491    0.3277   -3.2777 HC        1 <0>        0.04189
     27 H15         1.4449   -1.1665   -3.6028 HC        1 <0>        0.04189
     28 H16        -1.6752   -0.6948    2.0297 HC        1 <0>        0.05221
     29 H17         0.0680   -0.6051    2.2484 HC        1 <0>        0.05221
     30 H18         0.4329    1.1174   -0.6966 HC        1 <0>        0.04413
     31 H19         1.4041    0.2288    0.4639 HC        1 <0>        0.04413
     32 H20        -0.2165    1.8877    1.3256 H1        1 <0>        0.03182
     33 H21        -2.2309    2.6969    1.9425 HO        1 <0>        0.39448
     34 H22         2.5816   -2.1191   -1.9061 HO        1 <0>        0.39449
@<TRIPOS>BOND
     1    1    8 1
     2    2    9 1
     3    3    9 1
     4    4   10 1
     5    5   10 1
     6    6    8 1
     7    6    9 1
     8    7    9 1
     9    7   10 1
    10    8   11 1
    11   10   12 1
    12    1   13 1
    13    1   14 1
    14    1   15 1
    15    2   16 1
    16    2   17 1
    17    2   18 1
    18    3   19 1
    19    3   20 1
    20    3   21 1
    21    4   22 1
    22    4   23 1
    23    4   24 1
    24    5   25 1
    25    5   26 1
    26    5   27 1
    27    6   28 1
    28    6   29 1
    29    7   30 1
    30    7   31 1
    31    8   32 1
    32   11   33 1
    33   12   34 1
@<TRIPOS>SUBSTRUCTURE
     1 <0>         1 GROUP 0 A     ****
