@<TRIPOS>MOLECULE
AlkEthOH_r477
   21    21     1     0     0
SMALL
USER_CHARGES

@<TRIPOS>ATOM
      1 C1         -1.9361    0.6003   -0.2955 CT        1 <0>       -0.10650
      2 C2         -1.4015   -0.6220    0.4488 CT        1 <0>       -0.10331
      3 C3         -1.1053    0.8773   -1.5398 CT        1 <0>        0.13533
      4 C4          0.8271   -0.1586   -0.6322 CT        1 <0>        0.34250
      5 C5          0.1125   -0.5102    0.6863 CT        1 <0>        0.13588
      6 C6          0.6551   -1.7981    1.3090 CT        1 <0>       -0.11603
      7 O1          0.2718    1.0301   -1.2011 OS        1 <0>       -0.43904
      8 O2          0.6936   -1.2443   -1.5468 OH        1 <0>       -0.62951
      9 O3          0.3264    0.5496    1.6259 OH        1 <0>       -0.58985
     10 H1         -2.9867    0.4495   -0.5652 HC        1 <0>        0.05335
     11 H2         -1.8897    1.4705    0.3708 HC        1 <0>        0.05335
     12 H3         -1.9348   -0.7126    1.4027 HC        1 <0>        0.05492
     13 H4         -1.6225   -1.5218   -0.1391 HC        1 <0>        0.05492
     14 H5         -1.2140    0.0759   -2.2800 H1        1 <0>        0.04913
     15 H6         -1.4385    1.8082   -2.0093 H1        1 <0>        0.04913
     16 H7          1.8997   -0.0046   -0.4553 H2        1 <0>        0.08649
     17 H8          1.7267   -1.7037    1.4709 HC        1 <0>        0.04908
     18 H9          0.4657   -2.6359    0.6413 HC        1 <0>        0.04908
     19 H10         0.1628   -1.9801    2.2619 HC        1 <0>        0.04908
     20 H11         1.1555   -0.9803   -2.3573 HO        1 <0>        0.41911
     21 H12        -0.1482    0.2959    2.4302 HO        1 <0>        0.40289
@<TRIPOS>BOND
     1    1    2 1
     2    1    3 1
     3    2    5 1
     4    3    7 1
     5    4    5 1
     6    4    7 1
     7    4    8 1
     8    5    6 1
     9    5    9 1
    10    1   10 1
    11    1   11 1
    12    2   12 1
    13    2   13 1
    14    3   14 1
    15    3   15 1
    16    4   16 1
    17    6   17 1
    18    6   18 1
    19    6   19 1
    20    8   20 1
    21    9   21 1
@<TRIPOS>SUBSTRUCTURE
     1 <0>         1 GROUP 0 A     ****
