@<TRIPOS>MOLECULE
AlkEthOH_r898
   33    33     1     0     0
SMALL
USER_CHARGES

@<TRIPOS>ATOM
      1 C1          1.6306   -0.3773   -1.8447 CT        1 <0>       -0.07208
      2 C2          1.1500   -1.7923   -1.5199 CT        1 <0>       -0.07359
      3 C3          2.0290    0.4536   -0.6256 CT        1 <0>       -0.07169
      4 C4         -0.1843   -1.9010   -0.7810 CT        1 <0>       -0.07186
      5 C5          1.0003    1.4945   -0.1813 CT        1 <0>       -0.06962
      6 C6         -0.1426   -1.3979    0.6657 CT        1 <0>       -0.06906
      7 C7         -0.4893    1.0885   -0.0952 CT        1 <0>       -0.04920
      8 C8         -0.8479   -0.0367    0.9453 CT        1 <0>       -0.03946
      9 C9         -1.2958    2.3891    0.1226 CT        1 <0>       -0.09444
     10 C10        -0.4728    0.3797    2.3859 CT        1 <0>       -0.08859
     11 C11        -2.3771   -0.3001    0.9282 CT        1 <0>       -0.08859
     12 H1          2.5247   -0.4886   -2.4729 HC        1 <0>        0.03750
     13 H2          0.8977    0.1471   -2.4675 HC        1 <0>        0.03750
     14 H3          1.0485   -2.3336   -2.4696 HC        1 <0>        0.03532
     15 H4          1.9270   -2.3220   -0.9543 HC        1 <0>        0.03532
     16 H5          2.3355   -0.1790    0.2118 HC        1 <0>        0.03568
     17 H6          2.9382    1.0124   -0.8886 HC        1 <0>        0.03568
     18 H7         -0.9831   -1.4314   -1.3629 HC        1 <0>        0.03739
     19 H8         -0.4381   -2.9693   -0.7490 HC        1 <0>        0.03739
     20 H9          1.3284    1.9205    0.7751 HC        1 <0>        0.03541
     21 H10         1.0761    2.3224   -0.9010 HC        1 <0>        0.03541
     22 H11        -0.6316   -2.1627    1.2874 HC        1 <0>        0.03797
     23 H12         0.8854   -1.3902    1.0406 HC        1 <0>        0.03797
     24 H13        -0.7958    0.7400   -1.0881 HC        1 <0>        0.04943
     25 H14        -1.0454    2.7985    1.0930 HC        1 <0>        0.03289
     26 H15        -2.3525    2.1577    0.0791 HC        1 <0>        0.03289
     27 H16        -1.0383    3.0959   -0.6560 HC        1 <0>        0.03289
     28 H17        -0.9485    1.3253    2.6127 HC        1 <0>        0.03359
     29 H18         0.6031    0.4803    2.4528 HC        1 <0>        0.03359
     30 H19        -0.8176   -0.3833    3.0724 HC        1 <0>        0.03359
     31 H20        -2.8894    0.6319    1.1202 HC        1 <0>        0.03359
     32 H21        -2.6109   -1.0225    1.6972 HC        1 <0>        0.03359
     33 H22        -2.6496   -0.6851   -0.0442 HC        1 <0>        0.03359
@<TRIPOS>BOND
     1    1    2 1
     2    1    3 1
     3    2    4 1
     4    3    5 1
     5    4    6 1
     6    5    7 1
     7    6    8 1
     8    7    8 1
     9    7    9 1
    10    8   10 1
    11    8   11 1
    12    1   12 1
    13    1   13 1
    14    2   14 1
    15    2   15 1
    16    3   16 1
    17    3   17 1
    18    4   18 1
    19    4   19 1
    20    5   20 1
    21    5   21 1
    22    6   22 1
    23    6   23 1
    24    7   24 1
    25    9   25 1
    26    9   26 1
    27    9   27 1
    28   10   28 1
    29   10   29 1
    30   10   30 1
    31   11   31 1
    32   11   32 1
    33   11   33 1
@<TRIPOS>SUBSTRUCTURE
     1 <0>         1 GROUP 0 A     ****
