@<TRIPOS>MOLECULE
AlkEthOH_c603
   26    25     1     0     0
SMALL
USER_CHARGES

@<TRIPOS>ATOM
      1 C1         -3.0599    0.9303   -0.9488 CT        1 <0>       -0.13068
      2 C2          3.0808   -0.7423    0.0163 CT        1 <0>       -0.12316
      3 C3          0.3986   -0.6670    1.5676 CT        1 <0>       -0.08732
      4 C4         -0.7154    0.0654   -0.6082 CT        1 <0>       -0.10221
      5 C5         -1.8643    0.8899   -0.0029 CT        1 <0>        0.14249
      6 C6          1.6992   -0.7009   -0.6355 CT        1 <0>        0.11856
      7 C7          0.6084    0.0139    0.2082 CT        1 <0>        0.17498
      8 O1         -1.4315    2.2244    0.2353 OH        1 <0>       -0.61141
      9 O2          1.2942   -2.0374   -0.9243 OH        1 <0>       -0.60626
     10 O3          1.0674    1.3485    0.4410 OH        1 <0>       -0.59941
     11 H1         -2.7700    1.3587   -1.9144 HC        1 <0>        0.04345
     12 H2         -3.4331   -0.0793   -1.1527 HC        1 <0>        0.04345
     13 H3         -3.8755    1.5304   -0.5342 HC        1 <0>        0.04345
     14 H4          3.0241   -1.2636    0.9787 HC        1 <0>        0.04682
     15 H5          3.4505    0.2634    0.2402 HC        1 <0>        0.04682
     16 H6          3.8124   -1.2629   -0.6078 HC        1 <0>        0.04682
     17 H7          1.3248   -0.7078    2.1492 HC        1 <0>        0.04645
     18 H8          0.0176   -1.6868    1.4496 HC        1 <0>        0.04645
     19 H9         -0.3627   -0.1483    2.1594 HC        1 <0>        0.04645
     20 H10        -1.0777   -0.9556   -0.7809 HC        1 <0>        0.06323
     21 H11        -0.4799    0.5001   -1.5897 HC        1 <0>        0.06323
     22 H12        -2.1841    0.4584    0.9505 H1        1 <0>        0.03850
     23 H13         1.8046   -0.1722   -1.5916 H1        1 <0>        0.02529
     24 H14        -2.1813    2.6931    0.6350 HO        1 <0>        0.40423
     25 H15         1.9590   -2.4021   -1.5284 HO        1 <0>        0.40051
     26 H16         1.1897    1.7491   -0.4320 HO        1 <0>        0.41927
@<TRIPOS>BOND
     1    1    5 1
     2    2    6 1
     3    3    7 1
     4    4    5 1
     5    4    7 1
     6    5    8 1
     7    6    7 1
     8    6    9 1
     9    7   10 1
    10    1   11 1
    11    1   12 1
    12    1   13 1
    13    2   14 1
    14    2   15 1
    15    2   16 1
    16    3   17 1
    17    3   18 1
    18    3   19 1
    19    4   20 1
    20    4   21 1
    21    5   22 1
    22    6   23 1
    23    8   24 1
    24    9   25 1
    25   10   26 1
@<TRIPOS>SUBSTRUCTURE
     1 <0>         1 GROUP 0 A     ****
