@<TRIPOS>MOLECULE
AlkEthOH_r927
   28    28     1     0     0
SMALL
USER_CHARGES

@<TRIPOS>ATOM
      1 C1          0.4438   -1.2125   -1.7789 CT        1 <0>       -0.06524
      2 C2          0.2399   -2.0378   -0.5088 CT        1 <0>       -0.10982
      3 C3          0.2945    0.3113   -1.6728 CT        1 <0>       -0.07614
      4 C4         -0.6556    1.2561    0.5329 CT        1 <0>       -0.08783
      5 C5          1.1634   -1.6747    0.6509 CT        1 <0>        0.13614
      6 C6         -0.9586    0.7983   -0.9138 CT        1 <0>       -0.05651
      7 C7         -0.1405    0.1598    1.4745 CT        1 <0>        0.13950
      8 C8         -1.5883    1.9778   -1.6703 CT        1 <0>       -0.09139
      9 C9          0.0744    0.7212    2.8773 CT        1 <0>       -0.10545
     10 O1          1.1269   -0.2995    1.0090 OS        1 <0>       -0.41960
     11 H1          1.4375   -1.4315   -2.1899 HC        1 <0>        0.03523
     12 H2         -0.2756   -1.5728   -2.5260 HC        1 <0>        0.03523
     13 H3         -0.8072   -1.9642   -0.1980 HC        1 <0>        0.04254
     14 H4          0.3982   -3.0956   -0.7541 HC        1 <0>        0.04254
     15 H5          1.2022    0.7460   -1.2377 HC        1 <0>        0.04768
     16 H6          0.2732    0.6873   -2.7046 HC        1 <0>        0.04768
     17 H7          0.0814    2.0699    0.4911 HC        1 <0>        0.04712
     18 H8         -1.5710    1.6809    0.9652 HC        1 <0>        0.04712
     19 H9          0.9274   -2.2832    1.5318 H1        1 <0>        0.04311
     20 H10         2.1980   -1.9039    0.3732 H1        1 <0>        0.04311
     21 H11        -1.7139    0.0041   -0.8853 HC        1 <0>        0.04361
     22 H12        -0.8739   -0.6516    1.5451 H1        1 <0>        0.03901
     23 H13        -0.8738    2.7935   -1.7245 HC        1 <0>        0.03276
     24 H14        -2.4787    2.3086   -1.1445 HC        1 <0>        0.03276
     25 H15        -1.8551    1.6605   -2.6739 HC        1 <0>        0.03276
     26 H16         0.8003    1.5326    2.8443 HC        1 <0>        0.04136
     27 H17         0.4463   -0.0620    3.5365 HC        1 <0>        0.04136
     28 H18        -0.8667    1.1016    3.2721 HC        1 <0>        0.04136
@<TRIPOS>BOND
     1    1    2 1
     2    1    3 1
     3    2    5 1
     4    3    6 1
     5    4    6 1
     6    4    7 1
     7    5   10 1
     8    6    8 1
     9    7    9 1
    10    7   10 1
    11    1   11 1
    12    1   12 1
    13    2   13 1
    14    2   14 1
    15    3   15 1
    16    3   16 1
    17    4   17 1
    18    4   18 1
    19    5   19 1
    20    5   20 1
    21    6   21 1
    22    7   22 1
    23    8   23 1
    24    8   24 1
    25    8   25 1
    26    9   26 1
    27    9   27 1
    28    9   28 1
@<TRIPOS>SUBSTRUCTURE
     1 <0>         1 GROUP 0 A     ****
