@<TRIPOS>MOLECULE
AlkEthOH_r659
   27    27     1     0     0
SMALL
USER_CHARGES

@<TRIPOS>ATOM
      1 C1          0.9420    1.8120   -0.9717 CT        1 <0>        0.09929
      2 C2          1.6345    0.5169   -1.3561 CT        1 <0>        0.12489
      3 C3         -0.5630    1.3747    0.8007 CT        1 <0>        0.13795
      4 C4         -0.6162   -0.1742    0.8907 CT        1 <0>       -0.07898
      5 C5         -0.1914   -0.8567   -0.4625 CT        1 <0>        0.35881
      6 C6         -2.0686   -0.5427    1.2709 CT        1 <0>       -0.08722
      7 C7          0.3114   -0.6097    2.0502 CT        1 <0>       -0.08722
      8 C8         -0.3645   -2.3854   -0.4385 CT        1 <0>       -0.11814
      9 O1          0.7153    1.8846    0.4276 OS        1 <0>       -0.40587
     10 O2          1.2100   -0.6570   -0.6829 OS        1 <0>       -0.45547
     11 O3         -1.0094   -0.3626   -1.5284 OH        1 <0>       -0.62239
     12 H1          1.5896    2.6515   -1.2489 H1        1 <0>        0.05655
     13 H2          0.0123    1.9568   -1.5336 H1        1 <0>        0.05655
     14 H3          1.5564    0.3557   -2.4371 H1        1 <0>        0.04421
     15 H4          2.7036    0.6124   -1.1351 H1        1 <0>        0.04421
     16 H5         -1.3379    1.7662    0.1288 H1        1 <0>        0.05329
     17 H6         -0.7851    1.8037    1.7859 H1        1 <0>        0.05329
     18 H7         -2.1492   -1.6198    1.3443 HC        1 <0>        0.04237
     19 H8         -2.7364   -0.1721    0.5037 HC        1 <0>        0.04237
     20 H9         -2.3079   -0.0868    2.2233 HC        1 <0>        0.04237
     21 H10         0.2881   -1.6886    2.1294 HC        1 <0>        0.04237
     22 H11        -0.0442   -0.1614    2.9686 HC        1 <0>        0.04237
     23 H12         1.3177   -0.2737    1.8370 HC        1 <0>        0.04237
     24 H13        -0.0566   -2.7953   -1.3947 HC        1 <0>        0.05335
     25 H14        -1.4071   -2.6245   -0.2570 HC        1 <0>        0.05335
     26 H15         0.2495   -2.8025    0.3529 HC        1 <0>        0.05335
     27 H16        -0.7075   -0.8120   -2.3308 HO        1 <0>        0.41198
@<TRIPOS>BOND
     1    1    2 1
     2    1    9 1
     3    2   10 1
     4    3    4 1
     5    3    9 1
     6    4    5 1
     7    4    6 1
     8    4    7 1
     9    5    8 1
    10    5   10 1
    11    5   11 1
    12    1   12 1
    13    1   13 1
    14    2   14 1
    15    2   15 1
    16    3   16 1
    17    3   17 1
    18    6   18 1
    19    6   19 1
    20    6   20 1
    21    7   21 1
    22    7   22 1
    23    7   23 1
    24    8   24 1
    25    8   25 1
    26    8   26 1
    27   11   27 1
@<TRIPOS>SUBSTRUCTURE
     1 <0>         1 GROUP 0 A     ****
