@<TRIPOS>MOLECULE
AlkEthOH_c251
   22    21     1     0     0
SMALL
USER_CHARGES

@<TRIPOS>ATOM
      1 C1         -0.5372    2.4674   -0.1149 CT        1 <0>       -0.13259
      2 C2          0.7059    0.8453   -1.5468 CT        1 <0>       -0.13259
      3 C3          1.5851   -1.6651    1.1803 CT        1 <0>        0.33608
      4 C4         -0.5471   -1.2376    0.1752 CT        1 <0>        0.52905
      5 C5         -0.5347    1.0431   -0.6752 CT        1 <0>        0.36284
      6 O1          1.3440   -2.6697    2.1542 OH        1 <0>       -0.60675
      7 O2         -1.3142   -1.9365    1.1583 OH        1 <0>       -0.62855
      8 O3         -1.6886    0.8753   -1.5001 OH        1 <0>       -0.63492
      9 O4          0.7640   -1.7979    0.0240 OS        1 <0>       -0.45971
     10 O5         -0.5471    0.1649    0.4565 OS        1 <0>       -0.48331
     11 H1         -1.4148    2.6446    0.5163 HC        1 <0>        0.05575
     12 H2         -0.5751    3.2007   -0.9293 HC        1 <0>        0.05575
     13 H3          0.3701    2.6724    0.4633 HC        1 <0>        0.05575
     14 H4          0.7365   -0.1676   -1.9638 HC        1 <0>        0.05575
     15 H5          1.6243    0.9610   -0.9614 HC        1 <0>        0.05575
     16 H6          0.7385    1.5700   -2.3667 HC        1 <0>        0.05575
     17 H7          2.6213   -1.7821    0.8500 H2        1 <0>        0.06336
     18 H8          1.4957   -0.6710    1.6319 H2        1 <0>        0.06336
     19 H9         -1.0562   -1.4118   -0.7793 H3        1 <0>        0.11740
     20 H10         1.9456   -2.4965    2.8980 HO        1 <0>        0.41615
     21 H11        -2.1857   -1.5089    1.2108 HO        1 <0>        0.43701
     22 H12        -1.6457    1.5240   -2.2224 HO        1 <0>        0.41867
@<TRIPOS>BOND
     1    1    5 1
     2    2    5 1
     3    3    6 1
     4    3    9 1
     5    4    7 1
     6    4    9 1
     7    4   10 1
     8    5    8 1
     9    5   10 1
    10    1   11 1
    11    1   12 1
    12    1   13 1
    13    2   14 1
    14    2   15 1
    15    2   16 1
    16    3   17 1
    17    3   18 1
    18    4   19 1
    19    6   20 1
    20    7   21 1
    21    8   22 1
@<TRIPOS>SUBSTRUCTURE
     1 <0>         1 GROUP 0 A     ****
