@<TRIPOS>MOLECULE
AlkEthOH_r933
   22    22     1     0     0
SMALL
USER_CHARGES

@<TRIPOS>ATOM
      1 C1          0.9427    0.5499   -1.3480 CT        1 <0>       -0.07033
      2 C2          1.3466    1.3860   -0.1369 CT        1 <0>       -0.11055
      3 C3          0.6475   -0.9076   -0.9874 CT        1 <0>       -0.07233
      4 C4          0.1752    1.9125    0.6874 CT        1 <0>        0.13219
      5 C5         -0.7322   -0.2695    1.0770 CT        1 <0>        0.13369
      6 C6         -0.6421   -1.1363   -0.1825 CT        1 <0>       -0.09332
      7 C7         -0.7622   -2.6166    0.1859 CT        1 <0>       -0.09067
      8 O1         -0.9755    1.0816    0.7046 OS        1 <0>       -0.41894
      9 H1          0.0931    1.0019   -1.8727 HC        1 <0>        0.04610
     10 H2          1.7831    0.5505   -2.0535 HC        1 <0>        0.04610
     11 H3          2.0080    0.7950    0.5091 HC        1 <0>        0.04284
     12 H4          1.9462    2.2443   -0.4645 HC        1 <0>        0.04284
     13 H5          0.5774   -1.4802   -1.9215 HC        1 <0>        0.03673
     14 H6          1.5045   -1.3227   -0.4411 HC        1 <0>        0.03673
     15 H7          0.4933    2.1110    1.7175 H1        1 <0>        0.04203
     16 H8         -0.1471    2.8735    0.2711 H1        1 <0>        0.04203
     17 H9         -1.5979   -0.5830    1.6712 H1        1 <0>        0.04431
     18 H10         0.1509   -0.3662    1.7201 H1        1 <0>        0.04431
     19 H11        -1.4855   -0.8772   -0.8368 HC        1 <0>        0.06238
     20 H12         0.0631   -2.9005    0.8353 HC        1 <0>        0.03462
     21 H13        -0.7329   -3.2223   -0.7172 HC        1 <0>        0.03462
     22 H14        -1.7028   -2.7899    0.7042 HC        1 <0>        0.03462
@<TRIPOS>BOND
     1    1    2 1
     2    1    3 1
     3    2    4 1
     4    3    6 1
     5    4    8 1
     6    5    6 1
     7    5    8 1
     8    6    7 1
     9    1    9 1
    10    1   10 1
    11    2   11 1
    12    2   12 1
    13    3   13 1
    14    3   14 1
    15    4   15 1
    16    4   16 1
    17    5   17 1
    18    5   18 1
    19    6   19 1
    20    7   20 1
    21    7   21 1
    22    7   22 1
@<TRIPOS>SUBSTRUCTURE
     1 <0>         1 GROUP 0 A     ****
