@<TRIPOS>MOLECULE
AlkEthOH_c556
   31    30     1     0     0
SMALL
USER_CHARGES

@<TRIPOS>ATOM
      1 C1         -1.0237    1.4603   -4.1011 CT        1 <0>       -0.10678
      2 C2         -1.8172    1.8943   -1.7488 CT        1 <0>       -0.10678
      3 C3         -0.0326   -1.0089   -0.4213 CT        1 <0>       -0.12088
      4 C4          2.4211   -2.4711   -2.1524 CT        1 <0>       -0.10746
      5 C5          1.1216   -4.1589   -3.4835 CT        1 <0>       -0.10746
      6 C6          1.3298   -1.7994   -4.3186 CT        1 <0>       -0.10746
      7 C7         -0.8610    1.1061   -2.6309 CT        1 <0>        0.14290
      8 C8          0.0350   -0.9855   -1.9430 CT        1 <0>        0.33359
      9 C9          1.2274   -2.6896   -3.0809 CT        1 <0>        0.15369
     10 O1         -1.1004   -0.2838   -2.4553 OS        1 <0>       -0.42660
     11 O2          0.0393   -2.3517   -2.3774 OS        1 <0>       -0.40920
     12 H1         -2.0462    1.2740   -4.4437 HC        1 <0>        0.04276
     13 H2         -0.7858    2.5165   -4.2672 HC        1 <0>        0.04276
     14 H3         -0.3341    0.8812   -4.7251 HC        1 <0>        0.04276
     15 H4         -2.8585    1.7184   -2.0353 HC        1 <0>        0.04276
     16 H5         -1.6096    2.9670   -1.8251 HC        1 <0>        0.04276
     17 H6         -1.6937    1.6244   -0.6941 HC        1 <0>        0.04276
     18 H7         -0.9633   -1.4805   -0.0861 HC        1 <0>        0.04929
     19 H8         -0.0085    0.0004   -0.0004 HC        1 <0>        0.04929
     20 H9          0.7968   -1.5881   -0.0030 HC        1 <0>        0.04929
     21 H10         2.5005   -1.4176   -1.8611 HC        1 <0>        0.04341
     22 H11         2.3423   -3.0779   -1.2444 HC        1 <0>        0.04341
     23 H12         3.3606   -2.7239   -2.6571 HC        1 <0>        0.04341
     24 H13         0.2665   -4.3203   -4.1497 HC        1 <0>        0.04341
     25 H14         0.9528   -4.7930   -2.6055 HC        1 <0>        0.04341
     26 H15         2.0274   -4.5048   -3.9919 HC        1 <0>        0.04341
     27 H16         0.4737   -1.9560   -4.9848 HC        1 <0>        0.04341
     28 H17         1.3695   -0.7387   -4.0504 HC        1 <0>        0.04341
     29 H18         2.2246   -2.0448   -4.9021 HC        1 <0>        0.04341
     30 H19         0.1700    1.3032   -2.3195 H1        1 <0>        0.03129
     31 H20         0.9718   -0.5106   -2.2632 H2        1 <0>        0.03603
@<TRIPOS>BOND
     1    1    7 1
     2    2    7 1
     3    3    8 1
     4    4    9 1
     5    5    9 1
     6    6    9 1
     7    7   10 1
     8    8   10 1
     9    8   11 1
    10    9   11 1
    11    1   12 1
    12    1   13 1
    13    1   14 1
    14    2   15 1
    15    2   16 1
    16    2   17 1
    17    3   18 1
    18    3   19 1
    19    3   20 1
    20    4   21 1
    21    4   22 1
    22    4   23 1
    23    5   24 1
    24    5   25 1
    25    5   26 1
    26    6   27 1
    27    6   28 1
    28    6   29 1
    29    7   30 1
    30    8   31 1
@<TRIPOS>SUBSTRUCTURE
     1 <0>         1 GROUP 0 A     ****
