@<TRIPOS>MOLECULE
AlkEthOH_c984
   22    21     1     0     0
SMALL
USER_CHARGES

@<TRIPOS>ATOM
      1 C1          0.9784   -0.0326   -0.2360 CT        1 <0>       -0.09129
      2 C2          1.0608    0.9421   -3.9925 CT        1 <0>       -0.10148
      3 C3         -2.9528   -0.5124   -2.2922 CT        1 <0>       -0.12205
      4 C4          1.4098    0.6794   -1.5114 CT        1 <0>       -0.09747
      5 C5          0.6395    0.1877   -2.7386 CT        1 <0>        0.14867
      6 C6         -1.4905   -0.8329   -2.5621 CT        1 <0>        0.33790
      7 O1         -1.3676   -1.5035   -3.8128 OH        1 <0>       -0.62864
      8 O2         -0.7550    0.3897   -2.5267 OS        1 <0>       -0.41334
      9 H1         -0.0930    0.1019   -0.0565 HC        1 <0>        0.03351
     10 H2          1.5239    0.3435    0.6351 HC        1 <0>        0.03351
     11 H3          1.1759   -1.1062   -0.3184 HC        1 <0>        0.03351
     12 H4          0.9007    2.0196   -3.8742 HC        1 <0>        0.04455
     13 H5          2.1149    0.7666   -4.2274 HC        1 <0>        0.04455
     14 H6          0.4568    0.6272   -4.8504 HC        1 <0>        0.04455
     15 H7         -3.3530    0.1590   -3.0586 HC        1 <0>        0.05253
     16 H8         -3.5595   -1.4248   -2.3106 HC        1 <0>        0.05253
     17 H9         -3.0781   -0.0535   -1.3066 HC        1 <0>        0.05253
     18 H10         2.4847    0.5237   -1.6590 HC        1 <0>        0.04740
     19 H11         1.2456    1.7551   -1.3741 HC        1 <0>        0.04740
     20 H12         0.8085   -0.8858   -2.8804 H1        1 <0>        0.05030
     21 H13        -1.1227   -1.5050   -1.7784 H2        1 <0>        0.02351
     22 H14        -1.8845   -2.3253   -3.7696 HO        1 <0>        0.40732
@<TRIPOS>BOND
     1    1    4 1
     2    2    5 1
     3    3    6 1
     4    4    5 1
     5    5    8 1
     6    6    7 1
     7    6    8 1
     8    1    9 1
     9    1   10 1
    10    1   11 1
    11    2   12 1
    12    2   13 1
    13    2   14 1
    14    3   15 1
    15    3   16 1
    16    3   17 1
    17    4   18 1
    18    4   19 1
    19    5   20 1
    20    6   21 1
    21    7   22 1
@<TRIPOS>SUBSTRUCTURE
     1 <0>         1 GROUP 0 A     ****
