@<TRIPOS>MOLECULE
AlkEthOH_c973
   24    23     1     0     0
SMALL
USER_CHARGES

@<TRIPOS>ATOM
      1 C1         -0.2043    2.2631   -1.8980 CT        1 <0>       -0.09073
      2 C2         -1.5792   -0.4435   -1.5977 CT        1 <0>       -0.09105
      3 C3          1.4689   -1.7370    2.1782 CT        1 <0>       -0.13181
      4 C4          0.3741    1.1076   -1.0915 CT        1 <0>       -0.07530
      5 C5         -0.0517   -0.9874    0.3127 CT        1 <0>       -0.06901
      6 C6         -0.6915    0.1618   -0.5028 CT        1 <0>       -0.06118
      7 C7          0.8828   -0.5376    1.4427 CT        1 <0>        0.13926
      8 O1          0.1511    0.2574    2.3703 OH        1 <0>       -0.59909
      9 H1         -0.8084    1.8762   -2.7253 HC        1 <0>        0.03239
     10 H2         -0.8545    2.8954   -1.2867 HC        1 <0>        0.03239
     11 H3          0.5911    2.8845   -2.3212 HC        1 <0>        0.03239
     12 H4         -0.9834   -1.0388   -2.2983 HC        1 <0>        0.03283
     13 H5         -2.0925    0.3376   -2.1686 HC        1 <0>        0.03283
     14 H6         -2.3349   -1.1121   -1.1745 HC        1 <0>        0.03283
     15 H7          0.6810   -2.3731    2.5932 HC        1 <0>        0.04178
     16 H8          2.1279   -1.4151    2.9920 HC        1 <0>        0.04178
     17 H9          2.0813   -2.3403    1.4993 HC        1 <0>        0.04178
     18 H10         0.9672    1.5430   -0.2800 HC        1 <0>        0.03587
     19 H11         1.0687    0.5423   -1.7246 HC        1 <0>        0.03587
     20 H12        -0.8664   -1.5764    0.7557 HC        1 <0>        0.04667
     21 H13         0.4932   -1.6584   -0.3640 HC        1 <0>        0.04667
     22 H14        -1.3421    0.7428    0.1633 HC        1 <0>        0.06551
     23 H15         1.7027    0.0686    1.0456 H1        1 <0>        0.03056
     24 H16         0.7811    0.5382    3.0524 HO        1 <0>        0.39676
@<TRIPOS>BOND
     1    1    4 1
     2    2    6 1
     3    3    7 1
     4    4    6 1
     5    5    6 1
     6    5    7 1
     7    7    8 1
     8    1    9 1
     9    1   10 1
    10    1   11 1
    11    2   12 1
    12    2   13 1
    13    2   14 1
    14    3   15 1
    15    3   16 1
    16    3   17 1
    17    4   18 1
    18    4   19 1
    19    5   20 1
    20    5   21 1
    21    6   22 1
    22    7   23 1
    23    8   24 1
@<TRIPOS>SUBSTRUCTURE
     1 <0>         1 GROUP 0 A     ****
