@<TRIPOS>MOLECULE
AlkEthOH_r1147
   27    27     1     0     0
SMALL
USER_CHARGES

@<TRIPOS>ATOM
      1 C1          0.9246    0.4252   -2.1925 CT        1 <0>        0.10178
      2 C2          1.4904    1.3992   -1.1721 CT        1 <0>        0.10393
      3 C3         -0.8036   -0.8406   -1.1340 CT        1 <0>        0.10719
      4 C4          0.5365    0.8531    0.9517 CT        1 <0>        0.33012
      5 C5         -0.9040   -1.0540    0.3868 CT        1 <0>        0.13758
      6 C6          0.7016    1.7405    2.1800 CT        1 <0>       -0.09669
      7 C7          0.0277   -2.1631    0.8948 CT        1 <0>       -0.10136
      8 C8         -2.3531   -1.4514    0.7197 CT        1 <0>       -0.10136
      9 O1          0.5546   -0.8016   -1.5740 OS        1 <0>       -0.42495
     10 O2          0.5252    1.7293   -0.1788 OS        1 <0>       -0.43931
     11 O3         -0.7000    0.1633    1.1185 OS        1 <0>       -0.42498
     12 H1          0.0814    0.8602   -2.7415 H1        1 <0>        0.05299
     13 H2          1.7032    0.1950   -2.9274 H1        1 <0>        0.05299
     14 H3          2.4065    1.0117   -0.7115 H1        1 <0>        0.05119
     15 H4          1.7564    2.3298   -1.6845 H1        1 <0>        0.05119
     16 H5         -1.2614   -1.6875   -1.6582 H1        1 <0>        0.05591
     17 H6         -1.3550    0.0618   -1.4258 H1        1 <0>        0.05591
     18 H7          1.3779    0.1533    0.9322 H2        1 <0>        0.05392
     19 H8         -0.1198    2.4546    2.2363 HC        1 <0>        0.05203
     20 H9          1.6425    2.2870    2.1204 HC        1 <0>        0.05203
     21 H10         0.7028    1.1299    3.0827 HC        1 <0>        0.05203
     22 H11        -0.0868   -2.2671    1.9699 HC        1 <0>        0.04631
     23 H12         1.0569   -1.9048    0.6630 HC        1 <0>        0.04631
     24 H13        -0.2291   -3.1008    0.4102 HC        1 <0>        0.04631
     25 H14        -2.4444   -1.6065    1.7895 HC        1 <0>        0.04631
     26 H15        -2.6019   -2.3675    0.1947 HC        1 <0>        0.04631
     27 H16        -3.0223   -0.6569    0.4067 HC        1 <0>        0.04631
@<TRIPOS>BOND
     1    1    2 1
     2    1    9 1
     3    2   10 1
     4    3    5 1
     5    3    9 1
     6    4    6 1
     7    4   10 1
     8    4   11 1
     9    5    7 1
    10    5    8 1
    11    5   11 1
    12    1   12 1
    13    1   13 1
    14    2   14 1
    15    2   15 1
    16    3   16 1
    17    3   17 1
    18    4   18 1
    19    6   19 1
    20    6   20 1
    21    6   21 1
    22    7   22 1
    23    7   23 1
    24    7   24 1
    25    8   25 1
    26    8   26 1
    27    8   27 1
@<TRIPOS>SUBSTRUCTURE
     1 <0>         1 GROUP 0 A     ****
