@<TRIPOS>MOLECULE
AlkEthOH_r817
   30    30     1     0     0
SMALL
USER_CHARGES

@<TRIPOS>ATOM
      1 C1         -0.3987   -1.0781   -2.1798 CT        1 <0>       -0.10747
      2 C2          1.1256   -1.1385   -1.9838 CT        1 <0>       -0.07492
      3 C3         -0.2418    0.4239    1.5094 CT        1 <0>       -0.13722
      4 C4         -1.2220   -1.8217   -1.1272 CT        1 <0>        0.13486
      5 C5          1.6491   -0.4354   -0.7297 CT        1 <0>        0.14044
      6 C6         -1.3629   -0.2109    0.6656 CT        1 <0>        0.14827
      7 C7          0.7625    1.2978    0.7115 CT        1 <0>        0.35162
      8 C8         -2.5961   -0.4844    1.5208 CT        1 <0>       -0.11510
      9 C9          0.1912    2.7123    0.5494 CT        1 <0>       -0.11806
     10 O1         -0.8748   -1.4755    0.2053 OS        1 <0>       -0.42509
     11 O2          0.9982    0.8225   -0.6142 OS        1 <0>       -0.41835
     12 O3          1.9696    1.3880    1.4726 OH        1 <0>       -0.62215
     13 H1         -0.7152   -0.0297   -2.2212 HC        1 <0>        0.04973
     14 H2         -0.6392   -1.5019   -3.1627 HC        1 <0>        0.04973
     15 H3          1.4705   -2.1787   -1.9937 HC        1 <0>        0.04362
     16 H4          1.5773   -0.6493   -2.8564 HC        1 <0>        0.04362
     17 H5         -0.6643    1.0372    2.3164 HC        1 <0>        0.06450
     18 H6          0.3154   -0.3732    2.0214 HC        1 <0>        0.06450
     19 H7         -2.2945   -1.6672   -1.2924 H1        1 <0>        0.04258
     20 H8         -1.0349   -2.8961   -1.2307 H1        1 <0>        0.04258
     21 H9          1.5073   -1.0665    0.1520 H1        1 <0>        0.05030
     22 H10         2.7263   -0.2605   -0.8256 H1        1 <0>        0.05030
     23 H11        -1.6444    0.4447   -0.1655 H1        1 <0>        0.05377
     24 H12        -2.3331   -1.1361    2.3532 HC        1 <0>        0.04161
     25 H13        -3.3644   -0.9689    0.9194 HC        1 <0>        0.04161
     26 H14        -2.9902    0.4522    1.9136 HC        1 <0>        0.04161
     27 H15         0.8935    3.3249   -0.0090 HC        1 <0>        0.05164
     28 H16         0.0277    3.1514    1.5297 HC        1 <0>        0.05164
     29 H17        -0.7523    2.6627    0.0129 HC        1 <0>        0.05164
     30 H18         1.7287    1.7983    2.3161 HO        1 <0>        0.40819
@<TRIPOS>BOND
     1    1    2 1
     2    1    4 1
     3    2    5 1
     4    3    6 1
     5    3    7 1
     6    4   10 1
     7    5   11 1
     8    6    8 1
     9    6   10 1
    10    7    9 1
    11    7   11 1
    12    7   12 1
    13    1   13 1
    14    1   14 1
    15    2   15 1
    16    2   16 1
    17    3   17 1
    18    3   18 1
    19    4   19 1
    20    4   20 1
    21    5   21 1
    22    5   22 1
    23    6   23 1
    24    8   24 1
    25    8   25 1
    26    8   26 1
    27    9   27 1
    28    9   28 1
    29    9   29 1
    30   12   30 1
@<TRIPOS>SUBSTRUCTURE
     1 <0>         1 GROUP 0 A     ****
