@<TRIPOS>MOLECULE
AlkEthOH_r789
   26    26     1     0     0
SMALL
USER_CHARGES

@<TRIPOS>ATOM
      1 C1          1.7255    0.7229   -0.7894 CT        1 <0>       -0.10702
      2 C2          0.7859   -0.3011   -1.4378 CT        1 <0>       -0.06785
      3 C3         -1.2652    0.5155   -0.0304 CT        1 <0>       -0.10316
      4 C4          2.1444    0.3878    0.6441 CT        1 <0>        0.13038
      5 C5          0.2782   -0.7379    1.6195 CT        1 <0>        0.13208
      6 C6         -1.1548   -0.4440    1.1647 CT        1 <0>       -0.07838
      7 C7         -0.7067    0.0486   -1.3773 CT        1 <0>        0.14773
      8 C8         -1.9206   -1.7466    0.9354 CT        1 <0>       -0.09345
      9 O1          1.0721    0.4434    1.5781 OS        1 <0>       -0.41829
     10 O2         -0.9588    1.1114   -2.3070 OH        1 <0>       -0.60802
     11 H1          2.6430    0.7672   -1.3900 HC        1 <0>        0.05687
     12 H2          1.2812    1.7239   -0.8241 HC        1 <0>        0.05687
     13 H3          1.0613   -0.3586   -2.5002 HC        1 <0>        0.04852
     14 H4          0.9653   -1.3028   -1.0365 HC        1 <0>        0.04852
     15 H5         -2.3303    0.7480   -0.1765 HC        1 <0>        0.05251
     16 H6         -0.8274    1.4871    0.2334 HC        1 <0>        0.05251
     17 H7          2.6593   -0.5790    0.6987 H1        1 <0>        0.04359
     18 H8          2.8712    1.1422    0.9662 H1        1 <0>        0.04359
     19 H9          0.2530   -1.0681    2.6651 H1        1 <0>        0.03974
     20 H10         0.7290   -1.5644    1.0606 H1        1 <0>        0.03974
     21 H11        -1.6457    0.0769    1.9993 HC        1 <0>        0.05404
     22 H12        -1.2821   -0.8130   -1.7336 H1        1 <0>        0.02611
     23 H13        -1.4687   -2.2995    0.1140 HC        1 <0>        0.03554
     24 H14        -2.9576   -1.5255    0.6898 HC        1 <0>        0.03554
     25 H15        -1.8886   -2.3558    1.8369 HC        1 <0>        0.03554
     26 H16        -1.9044    1.3045   -2.2421 HO        1 <0>        0.39675
@<TRIPOS>BOND
     1    1    2 1
     2    1    4 1
     3    2    7 1
     4    3    6 1
     5    3    7 1
     6    4    9 1
     7    5    6 1
     8    5    9 1
     9    6    8 1
    10    7   10 1
    11    1   11 1
    12    1   12 1
    13    2   13 1
    14    2   14 1
    15    3   15 1
    16    3   16 1
    17    4   17 1
    18    4   18 1
    19    5   19 1
    20    5   20 1
    21    6   21 1
    22    7   22 1
    23    8   23 1
    24    8   24 1
    25    8   25 1
    26   10   26 1
@<TRIPOS>SUBSTRUCTURE
     1 <0>         1 GROUP 0 A     ****
