@<TRIPOS>MOLECULE
AlkEthOH_r891
   33    33     1     0     0
SMALL
USER_CHARGES

@<TRIPOS>ATOM
      1 C1         -0.0608    2.0664   -1.6403 CT        1 <0>       -0.07315
      2 C2          0.0529    0.6437   -2.2014 CT        1 <0>       -0.07315
      3 C3         -0.2774    2.1917   -0.1273 CT        1 <0>       -0.07406
      4 C4         -1.1385   -0.2611   -1.8755 CT        1 <0>       -0.07406
      5 C5          0.7981    1.5107    0.7263 CT        1 <0>       -0.07014
      6 C6         -0.7657   -1.5873   -1.1968 CT        1 <0>       -0.07014
      7 C7         -0.6224   -0.6289    1.1916 CT        1 <0>       -0.06802
      8 C8          0.2463    0.5142    1.7690 CT        1 <0>       -0.06117
      9 C9          0.0583   -1.4927    0.1069 CT        1 <0>       -0.06117
     10 C10         1.4010   -0.0456    2.6078 CT        1 <0>       -0.09149
     11 C11         0.3081   -2.9111    0.6397 CT        1 <0>       -0.09149
     12 H1          0.8492    2.6158   -1.9128 HC        1 <0>        0.03657
     13 H2         -0.8883    2.5789   -2.1472 HC        1 <0>        0.03657
     14 H3          0.1251    0.7305   -3.2939 HC        1 <0>        0.03657
     15 H4          1.0016    0.1938   -1.8956 HC        1 <0>        0.03657
     16 H5         -0.2725    3.2634    0.1130 HC        1 <0>        0.03702
     17 H6         -1.2827    1.8536    0.1388 HC        1 <0>        0.03702
     18 H7         -1.8978    0.2636   -1.2889 HC        1 <0>        0.03702
     19 H8         -1.6417   -0.5116   -2.8191 HC        1 <0>        0.03702
     20 H9          1.5624    1.0346    0.1044 HC        1 <0>        0.03700
     21 H10         1.3351    2.2997    1.2713 HC        1 <0>        0.03700
     22 H11        -1.6954   -2.1365   -0.9974 HC        1 <0>        0.03700
     23 H12        -0.2046   -2.1939   -1.9202 HC        1 <0>        0.03700
     24 H13        -0.9374   -1.2659    2.0296 HC        1 <0>        0.03966
     25 H14        -1.5592   -0.2053    0.8179 HC        1 <0>        0.03966
     26 H15        -0.3975    1.0816    2.4552 HC        1 <0>        0.04577
     27 H16         1.0433   -1.0873   -0.1395 HC        1 <0>        0.04577
     28 H17         2.0693   -0.6181    1.9700 HC        1 <0>        0.03247
     29 H18         1.0043   -0.6912    3.3869 HC        1 <0>        0.03247
     30 H19         1.9503    0.7744    3.0630 HC        1 <0>        0.03247
     31 H20        -0.6403   -3.3696    0.9036 HC        1 <0>        0.03247
     32 H21         0.9436   -2.8595    1.5188 HC        1 <0>        0.03247
     33 H22         0.7970   -3.5038   -0.1278 HC        1 <0>        0.03247
@<TRIPOS>BOND
     1    1    2 1
     2    1    3 1
     3    2    4 1
     4    3    5 1
     5    4    6 1
     6    5    8 1
     7    6    9 1
     8    7    8 1
     9    7    9 1
    10    8   10 1
    11    9   11 1
    12    1   12 1
    13    1   13 1
    14    2   14 1
    15    2   15 1
    16    3   16 1
    17    3   17 1
    18    4   18 1
    19    4   19 1
    20    5   20 1
    21    5   21 1
    22    6   22 1
    23    6   23 1
    24    7   24 1
    25    7   25 1
    26    8   26 1
    27    9   27 1
    28   10   28 1
    29   10   29 1
    30   10   30 1
    31   11   31 1
    32   11   32 1
    33   11   33 1
@<TRIPOS>SUBSTRUCTURE
     1 <0>         1 GROUP 0 A     ****
