@<TRIPOS>MOLECULE
AlkEthOH_r808
   19    19     1     0     0
SMALL
USER_CHARGES

@<TRIPOS>ATOM
      1 C1         -1.0783   -0.5076    0.0183 CT        1 <0>       -0.12899
      2 C2         -0.0690   -0.6439   -1.1274 CT        1 <0>        0.12249
      3 C3         -0.1239    0.5752    0.5550 CT        1 <0>        0.13371
      4 C4         -0.5046   -0.1480   -2.4905 CT        1 <0>       -0.10404
      5 C5         -0.6358    2.0037    0.4330 CT        1 <0>       -0.09516
      6 C6          0.4815    0.2768    1.9186 CT        1 <0>       -0.09516
      7 O1          0.8387    0.2936   -0.4952 OS        1 <0>       -0.42521
      8 H1         -2.0693   -0.1600   -0.2878 HC        1 <0>        0.06050
      9 H2         -1.1901   -1.3930    0.6515 HC        1 <0>        0.06050
     10 H3          0.3918   -1.6374   -1.1868 H1        1 <0>        0.06306
     11 H4         -0.9605    0.8422   -2.4089 HC        1 <0>        0.04482
     12 H5         -1.2364   -0.8312   -2.9294 HC        1 <0>        0.04482
     13 H6          0.3537   -0.0798   -3.1642 HC        1 <0>        0.04482
     14 H7          0.1002    2.7004    0.8355 HC        1 <0>        0.04564
     15 H8         -1.5678    2.1156    0.9879 HC        1 <0>        0.04564
     16 H9         -0.8170    2.2479   -0.6142 HC        1 <0>        0.04564
     17 H10         1.1414    1.0906    2.2220 HC        1 <0>        0.04564
     18 H11         1.0586   -0.6479    1.8783 HC        1 <0>        0.04564
     19 H12        -0.3079    0.1672    2.6634 HC        1 <0>        0.04564
@<TRIPOS>BOND
     1    1    2 1
     2    1    3 1
     3    2    4 1
     4    2    7 1
     5    3    5 1
     6    3    6 1
     7    3    7 1
     8    1    8 1
     9    1    9 1
    10    2   10 1
    11    4   11 1
    12    4   12 1
    13    4   13 1
    14    5   14 1
    15    5   15 1
    16    5   16 1
    17    6   17 1
    18    6   18 1
    19    6   19 1
@<TRIPOS>SUBSTRUCTURE
     1 <0>         1 GROUP 0 A     ****
