@<TRIPOS>MOLECULE
AlkEthOH_r916
   25    25     1     0     0
SMALL
USER_CHARGES

@<TRIPOS>ATOM
      1 C1         -1.8023   -0.3427   -0.1595 CT        1 <0>       -0.07259
      2 C2         -1.1775    0.4248   -1.3271 CT        1 <0>       -0.07203
      3 C3         -1.6920    0.3363    1.2077 CT        1 <0>       -0.10998
      4 C4          0.2117    1.0304   -1.1257 CT        1 <0>       -0.06982
      5 C5         -0.5196   -0.1408    2.0676 CT        1 <0>        0.13453
      6 C6          1.2333   -0.6654    0.5335 CT        1 <0>        0.13291
      7 C7          1.3672    0.0681   -0.8044 CT        1 <0>       -0.08206
      8 C8          1.6250   -0.9276   -1.9351 CT        1 <0>       -0.09068
      9 O1          0.7540    0.2169    1.5429 OS        1 <0>       -0.41889
     10 H1         -2.8700   -0.4507   -0.3942 HC        1 <0>        0.03559
     11 H2         -1.4206   -1.3677   -0.1222 HC        1 <0>        0.03559
     12 H3         -1.1719   -0.2263   -2.2094 HC        1 <0>        0.03560
     13 H4         -1.8546    1.2521   -1.5805 HC        1 <0>        0.03560
     14 H5         -1.6525    1.4247    1.0868 HC        1 <0>        0.04807
     15 H6         -2.6102    0.1171    1.7673 HC        1 <0>        0.04807
     16 H7          0.4695    1.5666   -2.0495 HC        1 <0>        0.04572
     17 H8          0.1620    1.8105   -0.3560 HC        1 <0>        0.04572
     18 H9         -0.5977    0.3504    3.0440 H1        1 <0>        0.04342
     19 H10        -0.5724   -1.2192    2.2601 H1        1 <0>        0.04342
     20 H11         0.6269   -1.5729    0.4486 H1        1 <0>        0.03893
     21 H12         2.2278   -1.0023    0.8503 H1        1 <0>        0.03893
     22 H13         2.2599    0.7048   -0.7242 HC        1 <0>        0.05069
     23 H14         0.7637   -1.5825   -2.0522 HC        1 <0>        0.03442
     24 H15         2.5022   -1.5286   -1.7031 HC        1 <0>        0.03442
     25 H16         1.7953   -0.3906   -2.8664 HC        1 <0>        0.03442
@<TRIPOS>BOND
     1    1    2 1
     2    1    3 1
     3    2    4 1
     4    3    5 1
     5    4    7 1
     6    5    9 1
     7    6    7 1
     8    6    9 1
     9    7    8 1
    10    1   10 1
    11    1   11 1
    12    2   12 1
    13    2   13 1
    14    3   14 1
    15    3   15 1
    16    4   16 1
    17    4   17 1
    18    5   18 1
    19    5   19 1
    20    6   20 1
    21    6   21 1
    22    7   22 1
    23    8   23 1
    24    8   24 1
    25    8   25 1
@<TRIPOS>SUBSTRUCTURE
     1 <0>         1 GROUP 0 A     ****
