@<TRIPOS>MOLECULE
AlkEthOH_r332
   31    31     1     0     0
SMALL
USER_CHARGES

@<TRIPOS>ATOM
      1 C1          0.2738    2.1418   -0.1029 CT        1 <0>       -0.07239
      2 C2         -0.1719    1.6876   -1.4862 CT        1 <0>       -0.07230
      3 C3          1.2259    1.1558    0.5623 CT        1 <0>       -0.09515
      4 C4         -1.1457    0.5158   -1.4735 CT        1 <0>       -0.09515
      5 C5          0.5691   -0.0633    1.2374 CT        1 <0>        0.16776
      6 C6         -0.6415   -0.8006   -0.8515 CT        1 <0>        0.16776
      7 C7         -0.0316    0.3759    2.5897 CT        1 <0>       -0.10303
      8 C8          1.6338   -1.1288    1.5461 CT        1 <0>       -0.10303
      9 C9          0.5896   -1.3740   -1.5595 CT        1 <0>       -0.10303
     10 C10        -1.7753   -1.8370   -1.0243 CT        1 <0>       -0.10303
     11 O1         -0.5262   -0.6732    0.5625 OS        1 <0>       -0.42789
     12 H1          0.8080    3.0927   -0.2250 HC        1 <0>        0.04031
     13 H2         -0.5925    2.3555    0.5318 HC        1 <0>        0.04031
     14 H3         -0.6721    2.5330   -1.9759 HC        1 <0>        0.04031
     15 H4          0.6990    1.4537   -2.1093 HC        1 <0>        0.04031
     16 H5          1.9700    0.8351   -0.1751 HC        1 <0>        0.04482
     17 H6          1.8102    1.6995    1.3178 HC        1 <0>        0.04482
     18 H7         -2.0469    0.8419   -0.9361 HC        1 <0>        0.04482
     19 H8         -1.4526    0.3307   -2.5115 HC        1 <0>        0.04482
     20 H9         -0.4938   -0.4808    3.0654 HC        1 <0>        0.04158
     21 H10        -0.7738    1.1450    2.4129 HC        1 <0>        0.04158
     22 H11         0.7607    0.7645    3.2182 HC        1 <0>        0.04158
     23 H12         1.1603   -1.9821    2.0211 HC        1 <0>        0.04158
     24 H13         2.3798   -0.7080    2.2126 HC        1 <0>        0.04158
     25 H14         2.1065   -1.4422    0.6207 HC        1 <0>        0.04158
     26 H15         0.8926   -2.2982   -1.0735 HC        1 <0>        0.04158
     27 H16         1.4057   -0.6571   -1.5103 HC        1 <0>        0.04158
     28 H17         0.3504   -1.5764   -2.6008 HC        1 <0>        0.04158
     29 H18        -1.4568   -2.7795   -0.5974 HC        1 <0>        0.04158
     30 H19        -1.9810   -1.9586   -2.0802 HC        1 <0>        0.04158
     31 H20        -2.6594   -1.4778   -0.5129 HC        1 <0>        0.04158
@<TRIPOS>BOND
     1    1    2 1
     2    1    3 1
     3    2    4 1
     4    3    5 1
     5    4    6 1
     6    5    7 1
     7    5    8 1
     8    5   11 1
     9    6    9 1
    10    6   10 1
    11    6   11 1
    12    1   12 1
    13    1   13 1
    14    2   14 1
    15    2   15 1
    16    3   16 1
    17    3   17 1
    18    4   18 1
    19    4   19 1
    20    7   20 1
    21    7   21 1
    22    7   22 1
    23    8   23 1
    24    8   24 1
    25    8   25 1
    26    9   26 1
    27    9   27 1
    28    9   28 1
    29   10   29 1
    30   10   30 1
    31   10   31 1
@<TRIPOS>SUBSTRUCTURE
     1 <0>         1 GROUP 0 A     ****
