@<TRIPOS>MOLECULE
AlkEthOH_r116
   19    19     1     0     0
SMALL
USER_CHARGES

@<TRIPOS>ATOM
      1 C1         -0.0380   -0.6498    2.0598 CT        1 <0>        0.09460
      2 C2          1.2676   -0.0951    1.5141 CT        1 <0>        0.10613
      3 C3         -1.5663   -0.2281    0.2896 CT        1 <0>        0.10128
      4 C4         -0.7822    0.2525   -0.9289 CT        1 <0>        0.09990
      5 C5          0.7295    0.3941   -0.7421 CT        1 <0>        0.34952
      6 O1         -0.8539   -1.2149    1.0348 OS        1 <0>       -0.40745
      7 O2          1.0479    0.9244    0.5413 OS        1 <0>       -0.45524
      8 O3         -1.0062   -0.6632   -2.0074 OH        1 <0>       -0.58820
      9 O4          1.2018    1.2801   -1.7612 OH        1 <0>       -0.59219
     10 H1          0.1869   -1.4502    2.7724 H1        1 <0>        0.05715
     11 H2         -0.5968    0.1194    2.6056 H1        1 <0>        0.05715
     12 H3          1.8321    0.3580    2.3358 H1        1 <0>        0.05732
     13 H4          1.8920   -0.8924    1.0941 H1        1 <0>        0.05732
     14 H5         -1.8364    0.6184    0.9323 H1        1 <0>        0.05612
     15 H6         -2.5032   -0.6952   -0.0341 H1        1 <0>        0.05612
     16 H7         -1.2178    1.2101   -1.2554 H1        1 <0>        0.06513
     17 H8          1.2323   -0.5655   -0.9163 H2        1 <0>        0.06383
     18 H9         -1.9595   -0.6550   -2.1735 HO        1 <0>        0.40292
     19 H10         2.1578    1.3593   -1.6297 HO        1 <0>        0.41859
@<TRIPOS>BOND
     1    1    2 1
     2    1    6 1
     3    2    7 1
     4    3    4 1
     5    3    6 1
     6    4    5 1
     7    4    8 1
     8    5    7 1
     9    5    9 1
    10    1   10 1
    11    1   11 1
    12    2   12 1
    13    2   13 1
    14    3   14 1
    15    3   15 1
    16    4   16 1
    17    5   17 1
    18    8   18 1
    19    9   19 1
@<TRIPOS>SUBSTRUCTURE
     1 <0>         1 GROUP 0 A     ****
