@<TRIPOS>MOLECULE
AlkEthOH_c670
   19    18     1     0     0
SMALL
USER_CHARGES

@<TRIPOS>ATOM
      1 C1         -0.8772    0.2946    0.4617 CT        1 <0>       -0.13109
      2 C2         -1.8997    3.7156   -3.1002 CT        1 <0>       -0.13109
      3 C3         -1.4311    2.0113   -1.3010 CT        1 <0>       -0.06676
      4 C4         -1.9511    0.8237   -0.4803 CT        1 <0>        0.14001
      5 C5         -2.4683    2.5565   -2.2917 CT        1 <0>        0.14001
      6 O1         -2.3390   -0.2218   -1.3672 OH        1 <0>       -0.60664
      7 O2         -3.6067    3.0163   -1.5688 OH        1 <0>       -0.60664
      8 H1          0.0188   -0.0104   -0.0874 HC        1 <0>        0.04135
      9 H2         -1.2469   -0.5616    1.0365 HC        1 <0>        0.04135
     10 H3         -0.5939    1.0627    1.1895 HC        1 <0>        0.04135
     11 H4         -1.5653    4.5189   -2.4348 HC        1 <0>        0.04135
     12 H5         -1.0227    3.3995   -3.6759 HC        1 <0>        0.04135
     13 H6         -2.6450    4.1235   -3.7895 HC        1 <0>        0.04135
     14 H7         -1.1343    2.8104   -0.6099 HC        1 <0>        0.05517
     15 H8         -0.5401    1.7027   -1.8623 HC        1 <0>        0.05517
     16 H9         -2.8315    1.1192    0.1008 H1        1 <0>        0.05356
     17 H10        -2.7968    1.7641   -2.9730 H1        1 <0>        0.05356
     18 H11        -2.6809   -0.9412   -0.8140 HO        1 <0>        0.39832
     19 H12        -4.2447    3.3306   -2.2282 HO        1 <0>        0.39832
@<TRIPOS>BOND
     1    1    4 1
     2    2    5 1
     3    3    4 1
     4    3    5 1
     5    4    6 1
     6    5    7 1
     7    1    8 1
     8    1    9 1
     9    1   10 1
    10    2   11 1
    11    2   12 1
    12    2   13 1
    13    3   14 1
    14    3   15 1
    15    4   16 1
    16    5   17 1
    17    6   18 1
    18    7   19 1
@<TRIPOS>SUBSTRUCTURE
     1 <0>         1 GROUP 0 A     ****
