@<TRIPOS>MOLECULE
AlkEthOH_r299
   23    23     1     0     0
SMALL
USER_CHARGES

@<TRIPOS>ATOM
      1 C1          0.3488    1.4700   -0.1067 CT        1 <0>       -0.10122
      2 C2          1.3707    0.5054    0.4545 CT        1 <0>       -0.09096
      3 C3         -0.9567    0.6842    0.0190 CT        1 <0>        0.15143
      4 C4          0.8348   -0.8318   -0.0376 CT        1 <0>        0.33184
      5 C5         -1.9086    0.9700   -1.1386 CT        1 <0>       -0.09720
      6 C6         -1.6537    0.9474    1.3557 CT        1 <0>       -0.09720
      7 C7          1.2673   -1.9957    0.8408 CT        1 <0>       -0.10969
      8 O1         -0.5970   -0.7124   -0.0136 OS        1 <0>       -0.45208
      9 O2          1.2944   -1.0371   -1.3735 OH        1 <0>       -0.61870
     10 H1          0.3345    2.4304    0.4177 HC        1 <0>        0.06117
     11 H2          0.5853    1.6729   -1.1588 HC        1 <0>        0.06117
     12 H3          2.3827    0.7264    0.1018 HC        1 <0>        0.06493
     13 H4          1.3598    0.5614    1.5492 HC        1 <0>        0.06493
     14 H5         -2.8251    0.3943   -1.0155 HC        1 <0>        0.04354
     15 H6         -1.4389    0.6930   -2.0816 HC        1 <0>        0.04354
     16 H7         -2.1554    2.0307   -1.1622 HC        1 <0>        0.04354
     17 H8         -2.5756    0.3725    1.4073 HC        1 <0>        0.04354
     18 H9         -1.8856    2.0064    1.4453 HC        1 <0>        0.04354
     19 H10        -1.0002    0.6523    2.1737 HC        1 <0>        0.04354
     20 H11         0.8616   -2.9307    0.4518 HC        1 <0>        0.05146
     21 H12         0.9048   -1.8521    1.8596 HC        1 <0>        0.05146
     22 H13         2.3558   -2.0662    0.8614 HC        1 <0>        0.05146
     23 H14         0.9382   -1.8925   -1.6572 HO        1 <0>        0.41596
@<TRIPOS>BOND
     1    1    2 1
     2    1    3 1
     3    2    4 1
     4    3    5 1
     5    3    6 1
     6    3    8 1
     7    4    7 1
     8    4    8 1
     9    4    9 1
    10    1   10 1
    11    1   11 1
    12    2   12 1
    13    2   13 1
    14    5   14 1
    15    5   15 1
    16    5   16 1
    17    6   17 1
    18    6   18 1
    19    6   19 1
    20    7   20 1
    21    7   21 1
    22    7   22 1
    23    9   23 1
@<TRIPOS>SUBSTRUCTURE
     1 <0>         1 GROUP 0 A     ****
