@<TRIPOS>MOLECULE
AlkEthOH_c636
   32    31     1     0     0
SMALL
USER_CHARGES

@<TRIPOS>ATOM
      1 C1         -3.7219    1.8304   -0.0444 CT        1 <0>       -0.13160
      2 C2          3.3590   -0.1149   -1.4381 CT        1 <0>       -0.12440
      3 C3          2.0639   -2.1374   -0.7405 CT        1 <0>       -0.12440
      4 C4          0.0398    0.0383    1.7110 CT        1 <0>       -0.08684
      5 C5         -1.3741    0.9269   -0.2201 CT        1 <0>       -0.10751
      6 C6          0.9909    0.2098   -0.6722 CT        1 <0>       -0.08314
      7 C7         -2.7418    0.7803    0.4680 CT        1 <0>        0.14234
      8 C8          2.2719   -0.6435   -0.4898 CT        1 <0>        0.16205
      9 C9         -0.2587   -0.0698    0.2136 CT        1 <0>        0.17506
     10 O1         -3.2826   -0.5092    0.2053 OH        1 <0>       -0.60842
     11 O2          2.7605   -0.4643    0.8409 OH        1 <0>       -0.60012
     12 O3         -0.7050   -1.3974   -0.0672 OH        1 <0>       -0.60196
     13 H1         -3.8565    1.7544   -1.1276 HC        1 <0>        0.04324
     14 H2         -4.6986    1.7255    0.4406 HC        1 <0>        0.04324
     15 H3         -3.3613    2.8377    0.1907 HC        1 <0>        0.04324
     16 H4          3.5280    0.9563   -1.2786 HC        1 <0>        0.04373
     17 H5          4.3195   -0.6084   -1.2494 HC        1 <0>        0.04373
     18 H6          3.0905   -0.2729   -2.4877 HC        1 <0>        0.04373
     19 H7          1.2909   -2.5385   -0.0740 HC        1 <0>        0.04373
     20 H8          1.7027   -2.3303   -1.7553 HC        1 <0>        0.04373
     21 H9          2.9841   -2.7059   -0.5727 HC        1 <0>        0.04373
     22 H10         0.8238   -0.6622    2.0161 HC        1 <0>        0.04705
     23 H11        -0.8528   -0.1562    2.3136 HC        1 <0>        0.04705
     24 H12         0.4376    1.0237    1.9716 HC        1 <0>        0.04705
     25 H13        -1.5338    0.7936   -1.2994 HC        1 <0>        0.05356
     26 H14        -1.0167    1.9535   -0.0669 HC        1 <0>        0.05356
     27 H15         0.6777    0.1090   -1.7213 HC        1 <0>        0.04616
     28 H16         1.2736    1.2614   -0.5220 HC        1 <0>        0.04616
     29 H17        -2.6398    0.8950    1.5515 H1        1 <0>        0.04084
     30 H18        -4.1292   -0.5577    0.6772 HO        1 <0>        0.40367
     31 H19         3.5801   -0.9772    0.9018 HO        1 <0>        0.39697
     32 H20        -0.8839   -1.4297   -1.0188 HO        1 <0>        0.41477
@<TRIPOS>BOND
     1    1    7 1
     2    2    8 1
     3    3    8 1
     4    4    9 1
     5    5    7 1
     6    5    9 1
     7    6    8 1
     8    6    9 1
     9    7   10 1
    10    8   11 1
    11    9   12 1
    12    1   13 1
    13    1   14 1
    14    1   15 1
    15    2   16 1
    16    2   17 1
    17    2   18 1
    18    3   19 1
    19    3   20 1
    20    3   21 1
    21    4   22 1
    22    4   23 1
    23    4   24 1
    24    5   25 1
    25    5   26 1
    26    6   27 1
    27    6   28 1
    28    7   29 1
    29   10   30 1
    30   11   31 1
    31   12   32 1
@<TRIPOS>SUBSTRUCTURE
     1 <0>         1 GROUP 0 A     ****
