@<TRIPOS>MOLECULE
AlkEthOH_c1221
   18    17     1     0     0
SMALL
USER_CHARGES

@<TRIPOS>ATOM
      1 C1         -1.1034    3.6463    1.1873 CT        1 <0>       -0.09627
      2 C2          1.0765    0.0499    0.1958 CT        1 <0>       -0.10698
      3 C3          2.8427    1.0382    1.6976 CT        1 <0>       -0.10698
      4 C4         -0.5869    2.2451    1.4354 CT        1 <0>        0.12919
      5 C5          1.3532    0.9191    1.4130 CT        1 <0>        0.13811
      6 O1          0.8123    2.2184    1.1940 OS        1 <0>       -0.42230
      7 H1         -0.6201    4.3644    1.8557 HC        1 <0>        0.04406
      8 H2         -0.9185    3.9481    0.1511 HC        1 <0>        0.04406
      9 H3         -2.1863    3.6917    1.3436 HC        1 <0>        0.04406
     10 H4          1.5701    0.4471   -0.6963 HC        1 <0>        0.04284
     11 H5          1.4331   -0.9713    0.3679 HC        1 <0>        0.04284
     12 H6          0.0011   -0.0220   -0.0013 HC        1 <0>        0.04284
     13 H7          3.3785    1.4589    0.8413 HC        1 <0>        0.04284
     14 H8          3.2667    0.0547    1.9270 HC        1 <0>        0.04284
     15 H9          3.0274    1.6718    2.5721 HC        1 <0>        0.04284
     16 H10        -1.0741    1.5320    0.7637 H1        1 <0>        0.02199
     17 H11        -0.7717    1.9456    2.4713 H1        1 <0>        0.02199
     18 H12         0.8468    0.4961    2.2868 H1        1 <0>        0.03203
@<TRIPOS>BOND
     1    1    4 1
     2    2    5 1
     3    3    5 1
     4    4    6 1
     5    5    6 1
     6    1    7 1
     7    1    8 1
     8    1    9 1
     9    2   10 1
    10    2   11 1
    11    2   12 1
    12    3   13 1
    13    3   14 1
    14    3   15 1
    15    4   16 1
    16    4   17 1
    17    5   18 1
@<TRIPOS>SUBSTRUCTURE
     1 <0>         1 GROUP 0 A     ****
