@<TRIPOS>MOLECULE
AlkEthOH_r785
   26    26     1     0     0
SMALL
USER_CHARGES

@<TRIPOS>ATOM
      1 C1          0.4902    0.9862   -1.6249 CT        1 <0>       -0.11124
      2 C2          1.4879    0.3246   -0.6725 CT        1 <0>       -0.05376
      3 C3         -0.1857   -0.6343    1.0568 CT        1 <0>       -0.12551
      4 C4         -0.6406    0.0774   -2.0959 CT        1 <0>        0.13387
      5 C5         -1.3865   -0.3783    0.1381 CT        1 <0>        0.14203
      6 C6          1.0323    0.2733    0.8008 CT        1 <0>        0.15001
      7 C7         -2.6038   -1.1539    0.6347 CT        1 <0>       -0.09749
      8 C8          2.1980   -0.1969    1.6830 CT        1 <0>       -0.12592
      9 O1         -1.0760   -0.8910   -1.1552 OS        1 <0>       -0.42252
     10 O2          0.6843    1.5929    1.2350 OH        1 <0>       -0.60074
     11 H1          0.0639    1.8830   -1.1604 HC        1 <0>        0.05571
     12 H2          1.0227    1.3484   -2.5134 HC        1 <0>        0.05571
     13 H3          1.7511   -0.6778   -1.0317 HC        1 <0>        0.05209
     14 H4          2.4055    0.9270   -0.7209 HC        1 <0>        0.05209
     15 H5         -0.5093   -0.5002    2.0975 HC        1 <0>        0.05316
     16 H6          0.1270   -1.6811    0.9423 HC        1 <0>        0.05316
     17 H7         -1.5000    0.6776   -2.4168 H1        1 <0>        0.04113
     18 H8         -0.3048   -0.4800   -2.9775 H1        1 <0>        0.04113
     19 H9         -1.6507    0.6855    0.0983 H1        1 <0>        0.05328
     20 H10        -2.3704   -2.2165    0.6845 HC        1 <0>        0.04276
     21 H11        -3.4405   -1.0049   -0.0463 HC        1 <0>        0.04276
     22 H12        -2.8856   -0.8044    1.6269 HC        1 <0>        0.04276
     23 H13         1.8747   -0.2320    2.7190 HC        1 <0>        0.04282
     24 H14         3.0272    0.4972    1.5845 HC        1 <0>        0.04282
     25 H15         2.5129   -1.1868    1.3667 HC        1 <0>        0.04282
     26 H16         0.4072    1.5081    2.1584 HO        1 <0>        0.39707
@<TRIPOS>BOND
     1    1    2 1
     2    1    4 1
     3    2    6 1
     4    3    5 1
     5    3    6 1
     6    4    9 1
     7    5    7 1
     8    5    9 1
     9    6    8 1
    10    6   10 1
    11    1   11 1
    12    1   12 1
    13    2   13 1
    14    2   14 1
    15    3   15 1
    16    3   16 1
    17    4   17 1
    18    4   18 1
    19    5   19 1
    20    7   20 1
    21    7   21 1
    22    7   22 1
    23    8   23 1
    24    8   24 1
    25    8   25 1
    26   10   26 1
@<TRIPOS>SUBSTRUCTURE
     1 <0>         1 GROUP 0 A     ****
