@<TRIPOS>MOLECULE
AlkEthOH_r372
   34    34     1     0     0
SMALL
USER_CHARGES

@<TRIPOS>ATOM
      1 C1         -2.5447    0.5183   -0.6309 CT        1 <0>       -0.06720
      2 C2         -1.9526   -0.6227   -1.4576 CT        1 <0>       -0.06991
      3 C3         -1.8002    0.9087    0.6458 CT        1 <0>       -0.07752
      4 C4         -0.5994   -0.3163   -2.0943 CT        1 <0>       -0.06654
      5 C5         -0.4242    1.5331    0.4059 CT        1 <0>       -0.06000
      6 C6          0.6397   -0.9021   -1.4096 CT        1 <0>       -0.09823
      7 C7          0.8413    0.6735    0.7242 CT        1 <0>       -0.02614
      8 C8          0.8404   -0.7921    0.1250 CT        1 <0>        0.17594
      9 C9          0.9688    0.6247    2.2732 CT        1 <0>       -0.08974
     10 C10         2.0517    1.4868    0.1986 CT        1 <0>       -0.08974
     11 C11         2.1564   -1.5496    0.4420 CT        1 <0>       -0.12984
     12 O1         -0.1770   -1.5624    0.7775 OH        1 <0>       -0.59819
     13 H1         -2.6560    1.4049   -1.2686 HC        1 <0>        0.03153
     14 H2         -3.5641    0.2273   -0.3456 HC        1 <0>        0.03153
     15 H3         -1.9368   -1.5568   -0.8890 HC        1 <0>        0.03794
     16 H4         -2.6616   -0.8035   -2.2774 HC        1 <0>        0.03794
     17 H5         -2.4196    1.6704    1.1398 HC        1 <0>        0.05036
     18 H6         -1.7696    0.0750    1.3511 HC        1 <0>        0.05036
     19 H7         -0.6141   -0.7491   -3.1053 HC        1 <0>        0.03667
     20 H8         -0.4750    0.7556   -2.2715 HC        1 <0>        0.03667
     21 H9         -0.3656    1.9458   -0.6060 HC        1 <0>        0.03470
     22 H10        -0.3761    2.4321    1.0395 HC        1 <0>        0.03470
     23 H11         0.6295   -1.9739   -1.6596 HC        1 <0>        0.03788
     24 H12         1.5196   -0.4916   -1.9219 HC        1 <0>        0.03788
     25 H13         1.8375    0.0355    2.5261 HC        1 <0>        0.03665
     26 H14         0.0750    0.1716    2.6753 HC        1 <0>        0.03665
     27 H15         1.0778    1.6348    2.6390 HC        1 <0>        0.03665
     28 H16         2.9557    0.9285    0.3977 HC        1 <0>        0.03665
     29 H17         2.0779    2.4379    0.7117 HC        1 <0>        0.03665
     30 H18         1.9309    1.6377   -0.8650 HC        1 <0>        0.03665
     31 H19         2.3359   -1.4980    1.5065 HC        1 <0>        0.04119
     32 H20         2.9644   -1.0774   -0.0983 HC        1 <0>        0.04119
     33 H21         2.0459   -2.5782    0.1292 HC        1 <0>        0.04119
     34 H22        -0.0635   -2.4727    0.4697 HO        1 <0>        0.39548
@<TRIPOS>BOND
     1    1    2 1
     2    1    3 1
     3    2    4 1
     4    3    5 1
     5    4    6 1
     6    5    7 1
     7    6    8 1
     8    7    8 1
     9    7    9 1
    10    7   10 1
    11    8   11 1
    12    8   12 1
    13    1   13 1
    14    1   14 1
    15    2   15 1
    16    2   16 1
    17    3   17 1
    18    3   18 1
    19    4   19 1
    20    4   20 1
    21    5   21 1
    22    5   22 1
    23    6   23 1
    24    6   24 1
    25    9   25 1
    26    9   26 1
    27    9   27 1
    28   10   28 1
    29   10   29 1
    30   10   30 1
    31   11   31 1
    32   11   32 1
    33   11   33 1
    34   12   34 1
@<TRIPOS>SUBSTRUCTURE
     1 <0>         1 GROUP 0 A     ****
