@<TRIPOS>MOLECULE
AlkEthOH_c566
   26    25     1     0     0
SMALL
USER_CHARGES

@<TRIPOS>ATOM
      1 C1         -2.9283    2.5449   -1.0754 CT        1 <0>       -0.10556
      2 C2         -2.3541    1.8988    1.2920 CT        1 <0>       -0.10556
      3 C3          0.3264   -1.7307    1.2420 CT        1 <0>       -0.12991
      4 C4          0.8629   -0.2793   -0.7926 CT        1 <0>       -0.10123
      5 C5         -1.8180    2.1714   -0.1052 CT        1 <0>        0.13698
      6 C6          0.2579   -1.5881   -0.2723 CT        1 <0>        0.14657
      7 C7          0.2321    0.9924   -0.2221 CT        1 <0>        0.33098
      8 O1          0.9667   -2.6791   -0.8614 OH        1 <0>       -0.60475
      9 O2          0.9445    2.0987   -0.7727 OH        1 <0>       -0.62606
     10 O3         -1.1487    1.0129   -0.5838 OS        1 <0>       -0.45754
     11 H1         -3.6816    1.7538   -1.1405 HC        1 <0>        0.04211
     12 H2         -3.4191    3.4701   -0.7551 HC        1 <0>        0.04211
     13 H3         -2.5292    2.7321   -2.0785 HC        1 <0>        0.04211
     14 H4         -3.0938    1.0925    1.2834 HC        1 <0>        0.04211
     15 H5         -2.8230    2.7995    1.7027 HC        1 <0>        0.04211
     16 H6         -1.5451    1.6248    1.9780 HC        1 <0>        0.04211
     17 H7          1.3591   -1.6455    1.5981 HC        1 <0>        0.04325
     18 H8         -0.0304   -2.7205    1.5475 HC        1 <0>        0.04325
     19 H9         -0.2826   -0.9766    1.7485 HC        1 <0>        0.04325
     20 H10         0.7668   -0.2695   -1.8875 HC        1 <0>        0.07004
     21 H11         1.9463   -0.2665   -0.6127 HC        1 <0>        0.07004
     22 H12        -1.0822    2.9812   -0.0627 H1        1 <0>        0.05852
     23 H13        -0.7840   -1.6774   -0.5975 H1        1 <0>        0.04817
     24 H14         0.3468    1.0085    0.8682 H2        1 <0>        0.07449
     25 H15         0.5238   -3.4868   -0.5610 HO        1 <0>        0.39973
     26 H16         0.8467    2.0521   -1.7388 HO        1 <0>        0.41268
@<TRIPOS>BOND
     1    1    5 1
     2    2    5 1
     3    3    6 1
     4    4    6 1
     5    4    7 1
     6    5   10 1
     7    6    8 1
     8    7    9 1
     9    7   10 1
    10    1   11 1
    11    1   12 1
    12    1   13 1
    13    2   14 1
    14    2   15 1
    15    2   16 1
    16    3   17 1
    17    3   18 1
    18    3   19 1
    19    4   20 1
    20    4   21 1
    21    5   22 1
    22    6   23 1
    23    7   24 1
    24    8   25 1
    25    9   26 1
@<TRIPOS>SUBSTRUCTURE
     1 <0>         1 GROUP 0 A     ****
