@<TRIPOS>MOLECULE
AlkEthOH_c954
   26    25     1     0     0
SMALL
USER_CHARGES

@<TRIPOS>ATOM
      1 C1         -0.1563   -1.9822    1.9329 CT        1 <0>       -0.08769
      2 C2         -2.0027    1.0713    0.1835 CT        1 <0>       -0.11955
      3 C3         -1.4566    0.6313   -2.2061 CT        1 <0>       -0.11955
      4 C4          2.2539    0.0007   -0.3785 CT        1 <0>       -0.14744
      5 C5          1.0760   -1.6251    1.1054 CT        1 <0>       -0.08322
      6 C6         -0.8621    0.8632   -0.8143 CT        1 <0>        0.37219
      7 C7          0.9682   -0.2481    0.4180 CT        1 <0>        0.37160
      8 O1         -0.0739    2.0495   -0.8454 OH        1 <0>       -0.62271
      9 O2          0.8439    0.7267    1.4506 OH        1 <0>       -0.62620
     10 O3         -0.1457   -0.3315   -0.4805 OS        1 <0>       -0.45393
     11 H1         -1.0624   -1.9826    1.3194 HC        1 <0>        0.03909
     12 H2         -0.2991   -1.2791    2.7590 HC        1 <0>        0.03909
     13 H3         -0.0417   -2.9834    2.3609 HC        1 <0>        0.03909
     14 H4         -1.6271    1.2415    1.1967 HC        1 <0>        0.05252
     15 H5         -2.5981    1.9534   -0.0767 HC        1 <0>        0.05252
     16 H6         -2.6592    0.1956    0.2253 HC        1 <0>        0.05252
     17 H7         -0.6735    0.4769   -2.9560 HC        1 <0>        0.05252
     18 H8         -2.0920    1.4686   -2.5145 HC        1 <0>        0.05252
     19 H9         -2.0872   -0.2656   -2.2067 HC        1 <0>        0.05252
     20 H10         2.2221    0.9711   -0.8857 HC        1 <0>        0.05476
     21 H11         2.3972   -0.7519   -1.1592 HC        1 <0>        0.05476
     22 H12         3.1358   -0.0380    0.2697 HC        1 <0>        0.05476
     23 H13         1.9465   -1.6415    1.7728 HC        1 <0>        0.04827
     24 H14         1.2155   -2.4094    0.3512 HC        1 <0>        0.04827
     25 H15        -0.6404    2.7884   -1.1242 HO        1 <0>        0.41228
     26 H16         1.6167    0.6494    2.0352 HO        1 <0>        0.41101
@<TRIPOS>BOND
     1    1    5 1
     2    2    6 1
     3    3    6 1
     4    4    7 1
     5    5    7 1
     6    6    8 1
     7    6   10 1
     8    7    9 1
     9    7   10 1
    10    1   11 1
    11    1   12 1
    12    1   13 1
    13    2   14 1
    14    2   15 1
    15    2   16 1
    16    3   17 1
    17    3   18 1
    18    3   19 1
    19    4   20 1
    20    4   21 1
    21    4   22 1
    22    5   23 1
    23    5   24 1
    24    8   25 1
    25    9   26 1
@<TRIPOS>SUBSTRUCTURE
     1 <0>         1 GROUP 0 A     ****
