@<TRIPOS>MOLECULE
AlkEthOH_r120
   19    19     1     0     0
SMALL
USER_CHARGES

@<TRIPOS>ATOM
      1 C1          1.1110   -0.3725   -0.3231 CT        1 <0>       -0.20748
      2 C2         -1.7426    0.7870   -0.2487 CT        1 <0>        0.10115
      3 C3         -0.9505    1.1355    1.0016 CT        1 <0>        0.10115
      4 C4         -0.0936   -0.6669   -1.2138 CT        1 <0>        0.34264
      5 C5          0.8288   -0.4775    1.1796 CT        1 <0>        0.34264
      6 O1         -0.9036    0.4983   -1.3617 OS        1 <0>       -0.43274
      7 O2         -0.4674   -0.0632    1.5941 OS        1 <0>       -0.43274
      8 O3          0.3667   -1.0737   -2.5043 OH        1 <0>       -0.60339
      9 O4          1.8513    0.2330    1.8763 OH        1 <0>       -0.60339
     10 H1          1.9470   -1.0435   -0.5617 HC        1 <0>        0.07271
     11 H2          1.4897    0.6328   -0.5548 HC        1 <0>        0.07271
     12 H3         -2.4145   -0.0617   -0.0766 H1        1 <0>        0.06547
     13 H4         -2.3547    1.6476   -0.5368 H1        1 <0>        0.06547
     14 H5         -0.1367    1.8421    0.8051 H1        1 <0>        0.06547
     15 H6         -1.6270    1.5920    1.7312 H1        1 <0>        0.06547
     16 H7         -0.6989   -1.5015   -0.8071 H2        1 <0>        0.07778
     17 H8          0.9166   -1.5318    1.4667 H2        1 <0>        0.07778
     18 H9          0.8878   -0.3353   -2.8534 HO        1 <0>        0.41465
     19 H10         2.6900   -0.1923    1.6414 HO        1 <0>        0.41465
@<TRIPOS>BOND
     1    1    4 1
     2    1    5 1
     3    2    3 1
     4    2    6 1
     5    3    7 1
     6    4    6 1
     7    4    8 1
     8    5    7 1
     9    5    9 1
    10    1   10 1
    11    1   11 1
    12    2   12 1
    13    2   13 1
    14    3   14 1
    15    3   15 1
    16    4   16 1
    17    5   17 1
    18    8   18 1
    19    9   19 1
@<TRIPOS>SUBSTRUCTURE
     1 <0>         1 GROUP 0 A     ****
