@<TRIPOS>MOLECULE
AlkEthOH_r476
   23    23     1     0     0
SMALL
USER_CHARGES

@<TRIPOS>ATOM
      1 C1          0.7808   -0.6253   -0.4466 CT        1 <0>       -0.10812
      2 C2          1.4228   -1.5070    0.6214 CT        1 <0>       -0.06906
      3 C3          1.8212    0.2474   -1.1326 CT        1 <0>        0.13436
      4 C4          3.6034   -1.2592   -0.6251 CT        1 <0>        0.33495
      5 C5          2.6603   -2.2622    0.0863 CT        1 <0>       -0.06343
      6 C6          2.2215   -3.3524   -0.9141 CT        1 <0>       -0.08715
      7 C7          3.3758   -2.9502    1.2633 CT        1 <0>       -0.08715
      8 O1          2.9032   -0.5315   -1.6411 OS        1 <0>       -0.45166
      9 O2          4.2178   -0.3832    0.3186 OH        1 <0>       -0.62255
     10 H1          0.2918   -1.2613   -1.1933 HC        1 <0>        0.04918
     11 H2          0.0001    0.0000    0.0001 HC        1 <0>        0.04918
     12 H3          1.7170   -0.8681    1.4647 HC        1 <0>        0.05005
     13 H4          0.6780   -2.2111    1.0124 HC        1 <0>        0.05005
     14 H5          1.3639    0.7713   -1.9782 H1        1 <0>        0.04930
     15 H6          2.2078    1.0127   -0.4499 H1        1 <0>        0.04930
     16 H7          4.4087   -1.8125   -1.1230 H2        1 <0>        0.06693
     17 H8          3.0999   -3.8712   -1.2787 HC        1 <0>        0.04064
     18 H9          1.7000   -2.8841   -1.7402 HC        1 <0>        0.04064
     19 H10         1.5634   -4.0500   -0.4098 HC        1 <0>        0.04064
     20 H11         4.2451   -3.4814    0.8910 HC        1 <0>        0.04064
     21 H12         2.6942   -3.6491    1.7358 HC        1 <0>        0.04064
     22 H13         3.6855   -2.1983    1.9811 HC        1 <0>        0.04064
     23 H14         4.7890    0.2119   -0.1904 HO        1 <0>        0.41198
@<TRIPOS>BOND
     1    1    2 1
     2    1    3 1
     3    2    5 1
     4    3    8 1
     5    4    5 1
     6    4    8 1
     7    4    9 1
     8    5    6 1
     9    5    7 1
    10    1   10 1
    11    1   11 1
    12    2   12 1
    13    2   13 1
    14    3   14 1
    15    3   15 1
    16    4   16 1
    17    6   17 1
    18    6   18 1
    19    6   19 1
    20    7   20 1
    21    7   21 1
    22    7   22 1
    23    9   23 1
@<TRIPOS>SUBSTRUCTURE
     1 <0>         1 GROUP 0 A     ****
