@<TRIPOS>MOLECULE
AlkEthOH_r731
   19    19     1     0     0
SMALL
USER_CHARGES

@<TRIPOS>ATOM
      1 C1         -0.9032    1.8168    0.6685 CT        1 <0>        0.09451
      2 C2         -1.1795    1.0426   -0.6113 CT        1 <0>        0.10692
      3 C3          0.5410    0.1504    1.5724 CT        1 <0>        0.33789
      4 C4          0.3887   -0.7708   -0.6534 CT        1 <0>        0.53043
      5 C5          1.8525   -1.0001   -1.0470 CT        1 <0>       -0.10770
      6 O1         -0.6183    0.9563    1.7677 OS        1 <0>       -0.42753
      7 O2          0.0514    0.5407   -1.1250 OS        1 <0>       -0.43933
      8 O3          0.2795   -0.9865    0.7591 OS        1 <0>       -0.50645
      9 O4         -0.4121   -1.7492   -1.3309 OH        1 <0>       -0.60866
     10 H1         -0.0688    2.5159    0.5399 H1        1 <0>        0.05865
     11 H2         -1.7903    2.3964    0.9423 H1        1 <0>        0.05865
     12 H3         -1.9095    0.2413   -0.4568 H1        1 <0>        0.07425
     13 H4         -1.5792    1.7293   -1.3640 H1        1 <0>        0.07425
     14 H5          1.3896    0.7431    1.2103 H2        1 <0>        0.06859
     15 H6          0.8173   -0.2329    2.5592 H2        1 <0>        0.06859
     16 H7          2.1714   -1.9857   -0.7147 HC        1 <0>        0.06083
     17 H8          2.4802   -0.2439   -0.5805 HC        1 <0>        0.06083
     18 H9          1.9558   -0.9352   -2.1281 HC        1 <0>        0.06083
     19 H10        -0.0922   -2.6132   -1.0334 HO        1 <0>        0.43445
@<TRIPOS>BOND
     1    1    2 1
     2    1    6 1
     3    2    7 1
     4    3    6 1
     5    3    8 1
     6    4    5 1
     7    4    7 1
     8    4    8 1
     9    4    9 1
    10    1   10 1
    11    1   11 1
    12    2   12 1
    13    2   13 1
    14    3   14 1
    15    3   15 1
    16    5   16 1
    17    5   17 1
    18    5   18 1
    19    9   19 1
@<TRIPOS>SUBSTRUCTURE
     1 <0>         1 GROUP 0 A     ****
