@<TRIPOS>MOLECULE
AlkEthOH_c882
   25    24     1     0     0
SMALL
USER_CHARGES

@<TRIPOS>ATOM
      1 C1         -3.4137   -1.9387   -5.7639 CT        1 <0>       -0.12620
      2 C2         -0.7980   -0.6513   -0.3742 CT        1 <0>       -0.08546
      3 C3         -1.0504    0.7940   -2.4065 CT        1 <0>       -0.08546
      4 C4          0.4975   -1.1771   -2.4496 CT        1 <0>       -0.08546
      5 C5         -2.0056   -1.5227   -2.4157 CT        1 <0>        0.13944
      6 C6         -3.1072   -2.3643   -4.3360 CT        1 <0>        0.33350
      7 C7         -0.8419   -0.6460   -1.9115 CT        1 <0>       -0.05455
      8 O1         -2.7577   -3.7450   -4.3098 OH        1 <0>       -0.62534
      9 O2         -2.0610   -1.5301   -3.8366 OS        1 <0>       -0.41030
     10 H1         -2.5346   -2.0607   -6.4046 HC        1 <0>        0.05343
     11 H2         -4.2137   -2.5551   -6.1890 HC        1 <0>        0.05343
     12 H3         -3.7466   -0.8967   -5.7993 HC        1 <0>        0.05343
     13 H4         -0.6501   -1.6659    0.0121 HC        1 <0>        0.03705
     14 H5         -1.7337   -0.2679    0.0485 HC        1 <0>        0.03705
     15 H6          0.0162   -0.0261    0.0081 HC        1 <0>        0.03705
     16 H7         -1.0866    0.8348   -3.5010 HC        1 <0>        0.03705
     17 H8         -1.9892    1.2123   -2.0264 HC        1 <0>        0.03705
     18 H9         -0.2362    1.4481   -2.0747 HC        1 <0>        0.03705
     19 H10         0.5146   -1.1923   -3.5449 HC        1 <0>        0.03705
     20 H11         0.6840   -2.2001   -2.1031 HC        1 <0>        0.03705
     21 H12         1.3331   -0.5543   -2.1108 HC        1 <0>        0.03705
     22 H13        -2.9646   -1.1479   -2.0407 H1        1 <0>        0.03555
     23 H14        -1.8872   -2.5577   -2.0754 H1        1 <0>        0.03555
     24 H15        -4.0061   -2.2296   -3.7235 H2        1 <0>        0.02643
     25 H16        -3.5094   -4.2559   -4.6539 HO        1 <0>        0.40856
@<TRIPOS>BOND
     1    1    6 1
     2    2    7 1
     3    3    7 1
     4    4    7 1
     5    5    7 1
     6    5    9 1
     7    6    8 1
     8    6    9 1
     9    1   10 1
    10    1   11 1
    11    1   12 1
    12    2   13 1
    13    2   14 1
    14    2   15 1
    15    3   16 1
    16    3   17 1
    17    3   18 1
    18    4   19 1
    19    4   20 1
    20    4   21 1
    21    5   22 1
    22    5   23 1
    23    6   24 1
    24    8   25 1
@<TRIPOS>SUBSTRUCTURE
     1 <0>         1 GROUP 0 A     ****
