@<TRIPOS>MOLECULE
AlkEthOH_c278
   35    34     1     0     0
SMALL
USER_CHARGES

@<TRIPOS>ATOM
      1 C1         -1.6856   -0.6894    2.4012 CT        1 <0>       -0.09111
      2 C2          0.7771   -0.6113    2.7857 CT        1 <0>       -0.09111
      3 C3          0.6067   -1.6548   -2.4913 CT        1 <0>       -0.08815
      4 C4          0.6381    0.8465   -2.3159 CT        1 <0>       -0.08815
      5 C5         -1.5195   -0.3862   -2.3453 CT        1 <0>       -0.08815
      6 C6          1.0497    1.5427    0.6567 CT        1 <0>       -0.09028
      7 C7         -1.4186    1.5599    0.3441 CT        1 <0>       -0.09028
      8 C8         -0.1296   -0.5631   -0.2760 CT        1 <0>       -0.06069
      9 C9         -0.4186    0.1560    2.1973 CT        1 <0>       -0.06047
     10 C10        -0.0568   -0.4312   -1.8327 CT        1 <0>       -0.04596
     11 C11        -0.2098    0.6588    0.7031 CT        1 <0>       -0.03387
     12 H1         -1.6336   -1.6040    1.7993 HC        1 <0>        0.03326
     13 H2         -1.8044   -1.0013    3.4423 HC        1 <0>        0.03326
     14 H3         -2.5876   -0.1504    2.0951 HC        1 <0>        0.03326
     15 H4          0.9851   -1.5283    2.2276 HC        1 <0>        0.03326
     16 H5          1.6848    0.0010    2.7309 HC        1 <0>        0.03326
     17 H6          0.6257   -0.8726    3.8367 HC        1 <0>        0.03326
     18 H7          0.1497   -2.5968   -2.1817 HC        1 <0>        0.03340
     19 H8          0.5564   -1.5945   -3.5840 HC        1 <0>        0.03340
     20 H9          1.6661   -1.7221   -2.2154 HC        1 <0>        0.03340
     21 H10         0.1892    1.7380   -1.8652 HC        1 <0>        0.03340
     22 H11         1.7075    0.8393   -2.0900 HC        1 <0>        0.03340
     23 H12         0.5526    0.9531   -3.4041 HC        1 <0>        0.03340
     24 H13        -2.0672    0.4632   -1.9207 HC        1 <0>        0.03340
     25 H14        -2.0638   -1.2974   -2.0716 HC        1 <0>        0.03340
     26 H15        -1.5535   -0.2899   -3.4366 HC        1 <0>        0.03340
     27 H16         1.9533    0.9755    0.9005 HC        1 <0>        0.03446
     28 H17         1.1930    1.9976   -0.3277 HC        1 <0>        0.03446
     29 H18         0.9742    2.3708    1.3715 HC        1 <0>        0.03446
     30 H19        -2.3640    1.0128    0.3521 HC        1 <0>        0.03446
     31 H20        -1.5220    2.4002    1.0381 HC        1 <0>        0.03446
     32 H21        -1.3149    1.9731   -0.6662 HC        1 <0>        0.03446
     33 H22         0.7364   -1.1716    0.0129 HC        1 <0>        0.03977
     34 H23        -1.0011   -1.1961   -0.0557 HC        1 <0>        0.03977
     35 H24        -0.5394    1.0501    2.8262 HC        1 <0>        0.04176
@<TRIPOS>BOND
     1    1    9 1
     2    2    9 1
     3    3   10 1
     4    4   10 1
     5    5   10 1
     6    6   11 1
     7    7   11 1
     8    8   10 1
     9    8   11 1
    10    9   11 1
    11    1   12 1
    12    1   13 1
    13    1   14 1
    14    2   15 1
    15    2   16 1
    16    2   17 1
    17    3   18 1
    18    3   19 1
    19    3   20 1
    20    4   21 1
    21    4   22 1
    22    4   23 1
    23    5   24 1
    24    5   25 1
    25    5   26 1
    26    6   27 1
    27    6   28 1
    28    6   29 1
    29    7   30 1
    30    7   31 1
    31    7   32 1
    32    8   33 1
    33    8   34 1
    34    9   35 1
@<TRIPOS>SUBSTRUCTURE
     1 <0>         1 GROUP 0 A     ****
