@<TRIPOS>MOLECULE
AlkEthOH_c583
   22    21     1     0     0
SMALL
USER_CHARGES

@<TRIPOS>ATOM
      1 C1         -0.1793   -3.3490    3.8750 CT        1 <0>       -0.10828
      2 C2         -1.0083   -2.1275    5.9176 CT        1 <0>       -0.10828
      3 C3         -0.6062    0.9264    0.6648 CT        1 <0>       -0.12680
      4 C4         -0.8331   -0.7088    2.5635 CT        1 <0>        0.13215
      5 C5         -0.9866   -2.1704    4.3972 CT        1 <0>        0.13889
      6 C6         -0.1831    0.5832    2.0850 CT        1 <0>        0.13818
      7 O1         -0.5895    1.6384    2.9552 OH        1 <0>       -0.58999
      8 O2         -0.4246   -0.9632    3.9033 OS        1 <0>       -0.41625
      9 H1          0.8530   -3.3146    4.2365 HC        1 <0>        0.04246
     10 H2         -0.6316   -4.2932    4.1968 HC        1 <0>        0.04246
     11 H3         -0.1667   -3.3641    2.7795 HC        1 <0>        0.04246
     12 H4          0.0041   -2.0640    6.3278 HC        1 <0>        0.04246
     13 H5         -1.4923   -3.0251    6.3173 HC        1 <0>        0.04246
     14 H6         -1.5873   -1.2706    6.2794 HC        1 <0>        0.04246
     15 H7         -1.6967    1.0050    0.5978 HC        1 <0>        0.04328
     16 H8         -0.1694    1.8751    0.3381 HC        1 <0>        0.04328
     17 H9         -0.3043    0.1399   -0.0355 HC        1 <0>        0.04328
     18 H10        -1.9253   -0.6300    2.5545 H1        1 <0>        0.03642
     19 H11        -0.5228   -1.5580    1.9467 H1        1 <0>        0.03642
     20 H12        -2.0121   -2.2337    4.0188 H1        1 <0>        0.03687
     21 H13         0.9076    0.5046    2.1521 H1        1 <0>        0.04793
     22 H14        -0.1450    2.4403    2.6406 HO        1 <0>        0.39814
@<TRIPOS>BOND
     1    1    5 1
     2    2    5 1
     3    3    6 1
     4    4    6 1
     5    4    8 1
     6    5    8 1
     7    6    7 1
     8    1    9 1
     9    1   10 1
    10    1   11 1
    11    2   12 1
    12    2   13 1
    13    2   14 1
    14    3   15 1
    15    3   16 1
    16    3   17 1
    17    4   18 1
    18    4   19 1
    19    5   20 1
    20    6   21 1
    21    7   22 1
@<TRIPOS>SUBSTRUCTURE
     1 <0>         1 GROUP 0 A     ****
