@<TRIPOS>MOLECULE
AlkEthOH_c183
   26    25     1     0     0
SMALL
USER_CHARGES

@<TRIPOS>ATOM
      1 C1          2.1450   -0.4439   -1.9758 CT        1 <0>       -0.10598
      2 C2          2.5134    0.1654    0.4330 CT        1 <0>       -0.10598
      3 C3          2.6284   -2.2401   -0.2803 CT        1 <0>       -0.10598
      4 C4         -1.2373   -1.2964   -1.8923 CT        1 <0>       -0.12523
      5 C5         -0.7430   -3.0057   -0.1418 CT        1 <0>        0.08615
      6 C6          1.9609   -0.8876   -0.5253 CT        1 <0>        0.18321
      7 C7         -0.1228   -1.9662   -1.0849 CT        1 <0>        0.37053
      8 O1         -1.4135   -4.0015   -0.9098 OH        1 <0>       -0.61895
      9 O2          0.7446   -2.6329   -2.0036 OH        1 <0>       -0.62116
     10 O3          0.5706   -1.0157   -0.2648 OS        1 <0>       -0.44031
     11 H1          1.7496   -1.1970   -2.6668 HC        1 <0>        0.04407
     12 H2          1.6412    0.5079   -2.1735 HC        1 <0>        0.04407
     13 H3          3.2078   -0.3298   -2.2179 HC        1 <0>        0.04407
     14 H4          2.3834   -0.1489    1.4749 HC        1 <0>        0.04407
     15 H5          1.9721    1.1124    0.3264 HC        1 <0>        0.04407
     16 H6          3.5777    0.3526    0.2576 HC        1 <0>        0.04407
     17 H7          2.4965   -2.5585    0.7601 HC        1 <0>        0.04407
     18 H8          2.2181   -3.0166   -0.9341 HC        1 <0>        0.04407
     19 H9          3.7094   -2.1775   -0.4499 HC        1 <0>        0.04407
     20 H10        -0.8353   -0.5452   -2.5800 HC        1 <0>        0.05170
     21 H11        -1.9723   -0.8223   -1.2323 HC        1 <0>        0.05170
     22 H12        -1.7917   -2.0302   -2.4874 HC        1 <0>        0.05170
     23 H13         0.0273   -3.5066    0.4537 H1        1 <0>        0.04425
     24 H14        -1.4829   -2.5460    0.5217 H1        1 <0>        0.04425
     25 H15        -1.7878   -4.6333   -0.2764 HO        1 <0>        0.41077
     26 H16         0.2201   -3.2936   -2.4866 HO        1 <0>        0.43270
@<TRIPOS>BOND
     1    1    6 1
     2    2    6 1
     3    3    6 1
     4    4    7 1
     5    5    7 1
     6    5    8 1
     7    6   10 1
     8    7    9 1
     9    7   10 1
    10    1   11 1
    11    1   12 1
    12    1   13 1
    13    2   14 1
    14    2   15 1
    15    2   16 1
    16    3   17 1
    17    3   18 1
    18    3   19 1
    19    4   20 1
    20    4   21 1
    21    4   22 1
    22    5   23 1
    23    5   24 1
    24    8   25 1
    25    9   26 1
@<TRIPOS>SUBSTRUCTURE
     1 <0>         1 GROUP 0 A     ****
