@<TRIPOS>MOLECULE
AlkEthOH_r1064
   25    25     1     0     0
SMALL
USER_CHARGES

@<TRIPOS>ATOM
      1 C1          1.1583   -0.1240   -1.0617 CT        1 <0>       -0.10562
      2 C2          0.9529   -1.6122   -0.8090 CT        1 <0>        0.12649
      3 C3         -1.0914   -1.2465    0.3268 CT        1 <0>        0.12827
      4 C4         -1.0124    0.2786    0.1543 CT        1 <0>       -0.08886
      5 C5          0.4653    0.7594    0.0056 CT        1 <0>       -0.04660
      6 C6         -1.7987    0.9650    1.2739 CT        1 <0>       -0.08963
      7 C7          0.5149    2.2234   -0.4782 CT        1 <0>       -0.08774
      8 C8          1.2472    0.6771    1.3334 CT        1 <0>       -0.08774
      9 O1         -0.4360   -1.9208   -0.7451 OS        1 <0>       -0.41420
     10 H1          2.2306    0.0980   -1.1174 HC        1 <0>        0.05080
     11 H2          0.7314    0.1144   -2.0453 HC        1 <0>        0.05080
     12 H3          1.3810   -2.1875   -1.6364 H1        1 <0>        0.04535
     13 H4          1.4488   -1.9473    0.1086 H1        1 <0>        0.04535
     14 H5         -0.6665   -1.5785    1.2810 H1        1 <0>        0.04628
     15 H6         -2.1387   -1.5683    0.3146 H1        1 <0>        0.04628
     16 H7         -1.5200    0.5141   -0.7927 HC        1 <0>        0.05905
     17 H8         -1.3281    0.7567    2.2321 HC        1 <0>        0.03616
     18 H9         -2.8198    0.5908    1.2862 HC        1 <0>        0.03616
     19 H10        -1.8116    2.0396    1.1059 HC        1 <0>        0.03616
     20 H11         0.0335    2.8559    0.2583 HC        1 <0>        0.03554
     21 H12        -0.0045    2.3004   -1.4261 HC        1 <0>        0.03554
     22 H13         1.5499    2.5208   -0.5996 HC        1 <0>        0.03554
     23 H14         0.7548    1.2979    2.0725 HC        1 <0>        0.03554
     24 H15         2.2586    1.0299    1.1702 HC        1 <0>        0.03554
     25 H16         1.2653   -0.3528    1.6695 HC        1 <0>        0.03554
@<TRIPOS>BOND
     1    1    2 1
     2    1    5 1
     3    2    9 1
     4    3    4 1
     5    3    9 1
     6    4    5 1
     7    4    6 1
     8    5    7 1
     9    5    8 1
    10    1   10 1
    11    1   11 1
    12    2   12 1
    13    2   13 1
    14    3   14 1
    15    3   15 1
    16    4   16 1
    17    6   17 1
    18    6   18 1
    19    6   19 1
    20    7   20 1
    21    7   21 1
    22    7   22 1
    23    8   23 1
    24    8   24 1
    25    8   25 1
@<TRIPOS>SUBSTRUCTURE
     1 <0>         1 GROUP 0 A     ****
