@<TRIPOS>MOLECULE
AlkEthOH_r771
   21    21     1     0     0
SMALL
USER_CHARGES

@<TRIPOS>ATOM
      1 C1         -0.2849   -0.9923   -0.3973 CT        1 <0>       -0.08523
      2 C2          0.5480    0.9588   -0.0590 CT        1 <0>       -0.08523
      3 C3         -0.1306    0.2762   -1.2722 CT        1 <0>       -0.08389
      4 C4         -0.1424   -0.0888    0.8625 CT        1 <0>       -0.07431
      5 C5          0.7110    0.1345   -2.5245 CT        1 <0>       -0.08323
      6 C6          0.7724   -0.6657    1.9379 CT        1 <0>       -0.07723
      7 C7         -1.4736    0.3773    1.4526 CT        1 <0>       -0.07723
      8 H1         -1.2376   -1.5196   -0.5063 HC        1 <0>        0.04973
      9 H2          0.5254   -1.7211   -0.5237 HC        1 <0>        0.04973
     10 H3          1.6433    0.8979   -0.0694 HC        1 <0>        0.04973
     11 H4          0.2662    2.0035    0.1044 HC        1 <0>        0.04973
     12 H5         -1.1015    0.7321   -1.5116 HC        1 <0>        0.05687
     13 H6          1.6762   -0.3189   -2.2855 HC        1 <0>        0.03408
     14 H7          0.8896    1.1135   -2.9762 HC        1 <0>        0.03408
     15 H8          0.2019   -0.4979   -3.2561 HC        1 <0>        0.03408
     16 H9          0.8248    0.0163    2.7858 HC        1 <0>        0.03472
     17 H10         1.7745   -0.8088    1.5351 HC        1 <0>        0.03472
     18 H11         0.3859   -1.6260    2.2780 HC        1 <0>        0.03472
     19 H12        -1.2904    1.0007    2.3255 HC        1 <0>        0.03472
     20 H13        -2.0671   -0.4858    1.7474 HC        1 <0>        0.03472
     21 H14        -2.0230    0.9531    0.7104 HC        1 <0>        0.03472
@<TRIPOS>BOND
     1    1    3 1
     2    1    4 1
     3    2    3 1
     4    2    4 1
     5    3    5 1
     6    4    6 1
     7    4    7 1
     8    1    8 1
     9    1    9 1
    10    2   10 1
    11    2   11 1
    12    3   12 1
    13    5   13 1
    14    5   14 1
    15    5   15 1
    16    6   16 1
    17    6   17 1
    18    6   18 1
    19    7   19 1
    20    7   20 1
    21    7   21 1
@<TRIPOS>SUBSTRUCTURE
     1 <0>         1 GROUP 0 A     ****
