@<TRIPOS>MOLECULE
AlkEthOH_r233
   26    26     1     0     0
SMALL
USER_CHARGES

@<TRIPOS>ATOM
      1 C1          0.0704   -1.2273    1.8226 CT        1 <0>       -0.10268
      2 C2         -0.3934   -1.9363    0.5549 CT        1 <0>       -0.10765
      3 C3         -0.5446    0.0683   -1.0150 CT        1 <0>       -0.13478
      4 C4         -0.2755    0.2540    1.8635 CT        1 <0>        0.13187
      5 C5          0.0810   -1.3073   -0.7565 CT        1 <0>        0.14564
      6 C6          0.1537    1.2523   -0.3123 CT        1 <0>        0.15805
      7 C7          1.4184    1.6460   -1.0938 CT        1 <0>       -0.10178
      8 C8         -0.7815    2.4706   -0.2728 CT        1 <0>       -0.10178
      9 O1          0.6081    0.9696    1.0127 OS        1 <0>       -0.42047
     10 O2         -0.3366   -2.1897   -1.8033 OH        1 <0>       -0.60059
     11 H1         -0.3904   -1.7262    2.6832 HC        1 <0>        0.05337
     12 H2          1.1562   -1.3517    1.9165 HC        1 <0>        0.05337
     13 H3         -0.0521   -2.9794    0.5935 HC        1 <0>        0.04419
     14 H4         -1.4899   -2.0000    0.5533 HC        1 <0>        0.04419
     15 H5         -0.5837    0.2654   -2.0953 HC        1 <0>        0.05252
     16 H6         -1.6005    0.0248   -0.7135 HC        1 <0>        0.05252
     17 H7         -1.3299    0.4443    1.6384 H1        1 <0>        0.04494
     18 H8         -0.0927    0.6222    2.8787 H1        1 <0>        0.04494
     19 H9          1.1745   -1.2684   -0.7853 H1        1 <0>        0.08704
     20 H10         1.9038    2.4783   -0.5945 HC        1 <0>        0.04384
     21 H11         1.1408    1.9369   -2.1018 HC        1 <0>        0.04384
     22 H12         2.0948    0.7982   -1.1316 HC        1 <0>        0.04384
     23 H13        -0.2783    3.2948    0.2235 HC        1 <0>        0.04384
     24 H14        -1.6842    2.2139    0.2731 HC        1 <0>        0.04384
     25 H15        -1.0393    2.7595   -1.2872 HC        1 <0>        0.04384
     26 H16        -1.3016   -2.2398   -1.7454 HO        1 <0>        0.39405
@<TRIPOS>BOND
     1    1    2 1
     2    1    4 1
     3    2    5 1
     4    3    5 1
     5    3    6 1
     6    4    9 1
     7    5   10 1
     8    6    7 1
     9    6    8 1
    10    6    9 1
    11    1   11 1
    12    1   12 1
    13    2   13 1
    14    2   14 1
    15    3   15 1
    16    3   16 1
    17    4   17 1
    18    4   18 1
    19    5   19 1
    20    7   20 1
    21    7   21 1
    22    7   22 1
    23    8   23 1
    24    8   24 1
    25    8   25 1
    26   10   26 1
@<TRIPOS>SUBSTRUCTURE
     1 <0>         1 GROUP 0 A     ****
