@<TRIPOS>MOLECULE
AlkEthOH_r545
   34    34     1     0     0
SMALL
USER_CHARGES

@<TRIPOS>ATOM
      1 C1         -1.4519    0.6843    0.9855 CT        1 <0>       -0.09957
      2 C2          1.5670    0.0528    0.9337 CT        1 <0>       -0.09957
      3 C3         -0.1572   -0.5535   -0.9602 CT        1 <0>       -0.05910
      4 C4         -0.8878    2.0507    0.5998 CT        1 <0>        0.13450
      5 C5          1.4622    1.5746    0.7944 CT        1 <0>        0.13450
      6 C6         -1.4606   -0.4159   -0.1113 CT        1 <0>       -0.03291
      7 C7          1.2461   -0.7968   -0.3189 CT        1 <0>       -0.03291
      8 C8         -1.8316   -1.7522    0.5607 CT        1 <0>       -0.09130
      9 C9         -2.6008   -0.0851   -1.1106 CT        1 <0>       -0.09130
     10 C10         2.3050   -0.4942   -1.4096 CT        1 <0>       -0.09130
     11 C11         1.4205   -2.2856    0.0562 CT        1 <0>       -0.09130
     12 O1          0.3892    2.0210   -0.0196 OS        1 <0>       -0.41398
     13 H1         -0.9279    0.3246    1.8745 HC        1 <0>        0.04189
     14 H2         -2.4803    0.8422    1.3406 HC        1 <0>        0.04189
     15 H3          2.5896   -0.1701    1.2712 HC        1 <0>        0.04189
     16 H4          0.9471   -0.2846    1.7685 HC        1 <0>        0.04189
     17 H5         -0.3245   -1.3653   -1.6854 HC        1 <0>        0.04658
     18 H6         -0.0884    0.3360   -1.6017 HC        1 <0>        0.04658
     19 H7         -1.5694    2.5326   -0.1092 H1        1 <0>        0.04207
     20 H8         -0.8475    2.7035    1.4799 H1        1 <0>        0.04207
     21 H9          1.4208    2.0517    1.7808 H1        1 <0>        0.04207
     22 H10         2.3787    1.9392    0.3165 H1        1 <0>        0.04207
     23 H11        -1.8435   -2.5355   -0.1888 HC        1 <0>        0.03377
     24 H12        -2.8127   -1.6619    1.0132 HC        1 <0>        0.03377
     25 H13        -1.0954   -1.9834    1.3222 HC        1 <0>        0.03377
     26 H14        -2.6166   -0.8447   -1.8792 HC        1 <0>        0.03377
     27 H15        -2.4072    0.8851   -1.5455 HC        1 <0>        0.03377
     28 H16        -3.5383   -0.0754   -0.5729 HC        1 <0>        0.03377
     29 H17         2.0803   -1.0881   -2.2848 HC        1 <0>        0.03377
     30 H18         3.2821   -0.7506   -1.0243 HC        1 <0>        0.03377
     31 H19         2.2623    0.5590   -1.6510 HC        1 <0>        0.03377
     32 H20         1.1992   -2.8947   -0.8114 HC        1 <0>        0.03377
     33 H21         0.7387   -2.5270    0.8620 HC        1 <0>        0.03377
     34 H22         2.4426   -2.4504    0.3736 HC        1 <0>        0.03377
@<TRIPOS>BOND
     1    1    4 1
     2    1    6 1
     3    2    5 1
     4    2    7 1
     5    3    6 1
     6    3    7 1
     7    4   12 1
     8    5   12 1
     9    6    8 1
    10    6    9 1
    11    7   10 1
    12    7   11 1
    13    1   13 1
    14    1   14 1
    15    2   15 1
    16    2   16 1
    17    3   17 1
    18    3   18 1
    19    4   19 1
    20    4   20 1
    21    5   21 1
    22    5   22 1
    23    8   23 1
    24    8   24 1
    25    8   25 1
    26    9   26 1
    27    9   27 1
    28    9   28 1
    29   10   29 1
    30   10   30 1
    31   10   31 1
    32   11   32 1
    33   11   33 1
    34   11   34 1
@<TRIPOS>SUBSTRUCTURE
     1 <0>         1 GROUP 0 A     ****
