@<TRIPOS>MOLECULE
AlkEthOH_c202
   23    22     1     0     0
SMALL
USER_CHARGES

@<TRIPOS>ATOM
      1 C1         -2.6040   -0.0591    0.1930 CT        1 <0>       -0.12461
      2 C2         -0.8547    0.1901    1.9648 CT        1 <0>       -0.12461
      3 C3         -0.1879   -0.3922   -0.4332 CT        1 <0>       -0.10681
      4 C4          2.1372   -0.7870   -1.3246 CT        1 <0>        0.10137
      5 C5          1.2959   -0.0045   -0.3184 CT        1 <0>        0.15009
      6 C6         -1.1649    0.3849    0.4801 CT        1 <0>        0.15524
      7 O1          3.5044   -0.4199   -1.1713 OH        1 <0>       -0.58218
      8 O2          1.4715    1.3823   -0.6001 OH        1 <0>       -0.57545
      9 O3         -1.0823    1.7840    0.2058 OH        1 <0>       -0.60274
     10 H1         -2.8494    0.0716   -0.8672 HC        1 <0>        0.04519
     11 H2         -3.3209    0.5529    0.7524 HC        1 <0>        0.04519
     12 H3         -2.7625   -1.1096    0.4578 HC        1 <0>        0.04519
     13 H4          0.1676    0.4978    2.2065 HC        1 <0>        0.04519
     14 H5         -1.5514    0.7501    2.5973 HC        1 <0>        0.04519
     15 H6         -0.9736   -0.8616    2.2508 HC        1 <0>        0.04519
     16 H7         -0.2900   -1.4663   -0.2311 HC        1 <0>        0.05390
     17 H8         -0.4956   -0.2252   -1.4748 HC        1 <0>        0.05390
     18 H9          2.0552   -1.8649   -1.1538 H1        1 <0>        0.01991
     19 H10         1.8407   -0.5560   -2.3531 H1        1 <0>        0.01991
     20 H11         1.6814   -0.1894    0.6896 H1        1 <0>        0.08064
     21 H12         4.0048   -0.9348   -1.8237 HO        1 <0>        0.39634
     22 H13         1.1533    1.5219   -1.5053 HO        1 <0>        0.40941
     23 H14        -1.7175    2.2162    0.7962 HO        1 <0>        0.40455
@<TRIPOS>BOND
     1    1    6 1
     2    2    6 1
     3    3    5 1
     4    3    6 1
     5    4    5 1
     6    4    7 1
     7    5    8 1
     8    6    9 1
     9    1   10 1
    10    1   11 1
    11    1   12 1
    12    2   13 1
    13    2   14 1
    14    2   15 1
    15    3   16 1
    16    3   17 1
    17    4   18 1
    18    4   19 1
    19    5   20 1
    20    7   21 1
    21    8   22 1
    22    9   23 1
@<TRIPOS>SUBSTRUCTURE
     1 <0>         1 GROUP 0 A     ****
