@<TRIPOS>MOLECULE
AlkEthOH_c345
   19    18     1     0     0
SMALL
USER_CHARGES

@<TRIPOS>ATOM
      1 C1          0.5628    1.7683    0.6595 CT        1 <0>       -0.08918
      2 C2          1.1743    0.9435   -1.6249 CT        1 <0>       -0.08918
      3 C3         -1.0413   -2.2037    1.3455 CT        1 <0>        0.11436
      4 C4          0.8773    0.5269   -0.1829 CT        1 <0>       -0.04985
      5 C5         -0.2545   -0.5189   -0.1271 CT        1 <0>        0.33072
      6 O1         -1.4506    0.0526   -0.6494 OH        1 <0>       -0.61119
      7 O2         -0.4061   -0.9375    1.2323 OS        1 <0>       -0.44256
      8 H1         -0.3364    2.2694    0.2848 HC        1 <0>        0.04104
      9 H2          0.3879    1.5100    1.7092 HC        1 <0>        0.04104
     10 H3          1.3835    2.4920    0.6198 HC        1 <0>        0.04104
     11 H4          0.3034    1.4079   -2.0992 HC        1 <0>        0.04104
     12 H5          1.9981    1.6646   -1.6570 HC        1 <0>        0.04104
     13 H6          1.4674    0.0769   -2.2266 HC        1 <0>        0.04104
     14 H7         -1.1313   -2.4741    2.4004 H1        1 <0>        0.03374
     15 H8         -0.4529   -2.9563    0.8145 H1        1 <0>        0.03374
     16 H9         -2.0375   -2.1427    0.9010 H1        1 <0>        0.03374
     17 H10         1.7826    0.0700    0.2379 HC        1 <0>        0.05529
     18 H11         0.0287   -1.3795   -0.7468 H2        1 <0>        0.02917
     19 H12        -2.1419   -0.6292   -0.6004 HO        1 <0>        0.40496
@<TRIPOS>BOND
     1    1    4 1
     2    2    4 1
     3    3    7 1
     4    4    5 1
     5    5    6 1
     6    5    7 1
     7    1    8 1
     8    1    9 1
     9    1   10 1
    10    2   11 1
    11    2   12 1
    12    2   13 1
    13    3   14 1
    14    3   15 1
    15    3   16 1
    16    4   17 1
    17    5   18 1
    18    6   19 1
@<TRIPOS>SUBSTRUCTURE
     1 <0>         1 GROUP 0 A     ****
