@<TRIPOS>MOLECULE
AlkEthOH_r704
   33    33     1     0     0
SMALL
USER_CHARGES

@<TRIPOS>ATOM
      1 C1          1.0864    2.2066   -1.3914 CT        1 <0>       -0.08067
      2 C2          1.0401    2.6117    0.0938 CT        1 <0>       -0.08058
      3 C3          0.1289    1.0788   -1.7730 CT        1 <0>        0.13502
      4 C4          0.9443    1.4460    1.0761 CT        1 <0>        0.13502
      5 C5         -0.0728   -1.2255   -0.9238 CT        1 <0>        0.36297
      6 C6         -0.5877   -0.4131    1.4000 CT        1 <0>        0.36297
      7 C7         -1.4792   -1.3122   -1.5253 CT        1 <0>       -0.11036
      8 C8          0.6834   -2.4781   -1.4120 CT        1 <0>       -0.11036
      9 C9          0.0339   -0.7130    2.7756 CT        1 <0>       -0.11036
     10 C10        -2.0992   -0.6301    1.5390 CT        1 <0>       -0.11036
     11 O1          0.7388   -0.1519   -1.4073 OS        1 <0>       -0.44823
     12 O2         -0.3940    0.9551    1.0446 OS        1 <0>       -0.44823
     13 O3         -0.0228   -1.3743    0.5037 OS        1 <0>       -0.47527
     14 H1          0.8460    3.1010   -1.9809 HC        1 <0>        0.04806
     15 H2          2.1161    1.9248   -1.6490 HC        1 <0>        0.04806
     16 H3          1.9421    3.1924    0.3085 HC        1 <0>        0.04806
     17 H4          0.1873    3.2756    0.2615 HC        1 <0>        0.04806
     18 H5         -0.8514    1.2368   -1.3245 H1        1 <0>        0.04229
     19 H6          0.0092    1.0601   -2.8590 H1        1 <0>        0.04229
     20 H7          1.6182    0.6483    0.7683 H1        1 <0>        0.04229
     21 H8          1.2324    1.7787    2.0711 H1        1 <0>        0.04229
     22 H9         -2.0541   -0.4490   -1.2098 HC        1 <0>        0.05142
     23 H10        -1.9586   -2.2202   -1.1775 HC        1 <0>        0.05142
     24 H11        -1.4025   -1.3277   -2.6066 HC        1 <0>        0.05142
     25 H12         1.6928   -2.4675   -1.0125 HC        1 <0>        0.05142
     26 H13         0.7214   -2.4754   -2.4969 HC        1 <0>        0.05142
     27 H14         0.1651   -3.3680   -1.0680 HC        1 <0>        0.05142
     28 H15         1.1114   -0.5723    2.7286 HC        1 <0>        0.05142
     29 H16        -0.1823   -1.7407    3.0584 HC        1 <0>        0.05142
     30 H17        -0.3842   -0.0397    3.5205 HC        1 <0>        0.05142
     31 H18        -2.5781   -0.4283    0.5868 HC        1 <0>        0.05142
     32 H19        -2.4888    0.0437    2.2946 HC        1 <0>        0.05142
     33 H20        -2.2869   -1.6574    1.8327 HC        1 <0>        0.05142
@<TRIPOS>BOND
     1    1    2 1
     2    1    3 1
     3    2    4 1
     4    3   11 1
     5    4   12 1
     6    5    7 1
     7    5    8 1
     8    5   11 1
     9    5   13 1
    10    6    9 1
    11    6   10 1
    12    6   12 1
    13    6   13 1
    14    1   14 1
    15    1   15 1
    16    2   16 1
    17    2   17 1
    18    3   18 1
    19    3   19 1
    20    4   20 1
    21    4   21 1
    22    7   22 1
    23    7   23 1
    24    7   24 1
    25    8   25 1
    26    8   26 1
    27    8   27 1
    28    9   28 1
    29    9   29 1
    30    9   30 1
    31   10   31 1
    32   10   32 1
    33   10   33 1
@<TRIPOS>SUBSTRUCTURE
     1 <0>         1 GROUP 0 A     ****
