@<TRIPOS>MOLECULE
AlkEthOH_r1112
   20    20     1     0     0
SMALL
USER_CHARGES

@<TRIPOS>ATOM
      1 C1         -0.5989   -0.0840   -0.9143 CT        1 <0>        0.11432
      2 C2         -1.4326   -2.1860   -0.7889 CT        1 <0>        0.33853
      3 C3          0.0759   -0.9465   -1.9645 CT        1 <0>        0.12844
      4 C4         -1.2908   -2.8863    0.5497 CT        1 <0>       -0.11761
      5 C5         -0.5491   -0.7677   -3.3511 CT        1 <0>       -0.09860
      6 C6          1.5812   -0.7239   -2.0219 CT        1 <0>       -0.09860
      7 O1         -1.7839   -0.8114   -0.5863 OS        1 <0>       -0.44762
      8 O2         -0.1925   -2.2770   -1.5036 OS        1 <0>       -0.44245
      9 H1          0.0001    0.0002   -0.0000 H1        1 <0>        0.05891
     10 H2         -0.8539    0.9213   -1.2618 H1        1 <0>        0.05891
     11 H3         -2.2199   -2.6609   -1.3836 H2        1 <0>        0.06255
     12 H4         -0.5058   -2.4133    1.1437 HC        1 <0>        0.05144
     13 H5         -1.0313   -3.9369    0.4022 HC        1 <0>        0.05144
     14 H6         -2.2291   -2.8335    1.1064 HC        1 <0>        0.05144
     15 H7         -0.0347   -1.4032   -4.0680 HC        1 <0>        0.04815
     16 H8         -0.4587    0.2707   -3.6609 HC        1 <0>        0.04815
     17 H9         -1.6005   -1.0427   -3.3157 HC        1 <0>        0.04815
     18 H10         2.0243   -1.3615   -2.7874 HC        1 <0>        0.04815
     19 H11         2.0314   -0.9642   -1.0584 HC        1 <0>        0.04815
     20 H12         1.7959    0.3177   -2.2622 HC        1 <0>        0.04815
@<TRIPOS>BOND
     1    1    3 1
     2    1    7 1
     3    2    4 1
     4    2    7 1
     5    2    8 1
     6    3    5 1
     7    3    6 1
     8    3    8 1
     9    1    9 1
    10    1   10 1
    11    2   11 1
    12    4   12 1
    13    4   13 1
    14    4   14 1
    15    5   15 1
    16    5   16 1
    17    5   17 1
    18    6   18 1
    19    6   19 1
    20    6   20 1
@<TRIPOS>SUBSTRUCTURE
     1 <0>         1 GROUP 0 A     ****
