@<TRIPOS>MOLECULE
AlkEthOH_r308
   19    19     1     0     0
SMALL
USER_CHARGES

@<TRIPOS>ATOM
      1 C1          0.1570    1.2820   -1.0262 CT        1 <0>       -0.13075
      2 C2          1.3284    0.7424   -0.1842 CT        1 <0>       -0.08779
      3 C3         -0.8102    0.5988   -0.0339 CT        1 <0>        0.12221
      4 C4          0.3677   -0.3496    0.3696 CT        1 <0>       -0.05817
      5 C5          0.4424   -1.6727   -0.3955 CT        1 <0>       -0.07647
      6 C6          0.4878   -0.5737    1.8743 CT        1 <0>       -0.07647
      7 O1         -1.9730   -0.0270   -0.6041 OH        1 <0>       -0.58274
      8 H1          0.0863    2.3720   -1.0774 HC        1 <0>        0.05476
      9 H2          0.1141    0.8796   -2.0445 HC        1 <0>        0.05476
     10 H3          2.1911    0.3881   -0.7560 HC        1 <0>        0.05235
     11 H4          1.6826    1.4593    0.5665 HC        1 <0>        0.05235
     12 H5         -1.1123    1.2805    0.7722 H1        1 <0>        0.04294
     13 H6         -0.2509   -2.3881    0.0414 HC        1 <0>        0.03873
     14 H7          1.4528   -2.0718   -0.3390 HC        1 <0>        0.03873
     15 H8          0.1790   -1.5083   -1.4381 HC        1 <0>        0.03873
     16 H9         -0.2105   -1.3476    2.1905 HC        1 <0>        0.03873
     17 H10         0.2599    0.3494    2.4057 HC        1 <0>        0.03873
     18 H11         1.5013   -0.8862    2.1225 HC        1 <0>        0.03873
     19 H12        -2.4556    0.6772   -1.0563 HO        1 <0>        0.40064
@<TRIPOS>BOND
     1    1    2 1
     2    1    3 1
     3    2    4 1
     4    3    4 1
     5    3    7 1
     6    4    5 1
     7    4    6 1
     8    1    8 1
     9    1    9 1
    10    2   10 1
    11    2   11 1
    12    3   12 1
    13    5   13 1
    14    5   14 1
    15    5   15 1
    16    6   16 1
    17    6   17 1
    18    6   18 1
    19    7   19 1
@<TRIPOS>SUBSTRUCTURE
     1 <0>         1 GROUP 0 A     ****
