@<TRIPOS>MOLECULE
AlkEthOH_r1144
   22    22     1     0     0
SMALL
USER_CHARGES

@<TRIPOS>ATOM
      1 C1          2.1095    0.3414    0.0552 CT        1 <0>        0.09638
      2 C2          1.5278   -0.9445    0.6208 CT        1 <0>        0.10696
      3 C3         -0.0204    1.2955   -0.4547 CT        1 <0>        0.34531
      4 C4         -0.7987   -0.9394    0.0456 CT        1 <0>        0.53249
      5 C5         -0.6528    2.6782   -0.5244 CT        1 <0>       -0.08961
      6 C6         -1.6732   -1.2877   -1.1644 CT        1 <0>       -0.10560
      7 O1          1.2299    1.4498    0.2193 OS        1 <0>       -0.42598
      8 O2          0.5158   -1.4223   -0.2611 OS        1 <0>       -0.44167
      9 O3         -0.9204    0.4689    0.2789 OS        1 <0>       -0.50453
     10 O4         -1.3174   -1.6398    1.1850 OH        1 <0>       -0.60969
     11 H1          3.0324    0.5887    0.5892 H1        1 <0>        0.05843
     12 H2          2.3527    0.2369   -1.0085 H1        1 <0>        0.05843
     13 H3          2.3106   -1.7090    0.6471 H1        1 <0>        0.07299
     14 H4          1.1467   -0.8100    1.6384 H1        1 <0>        0.07299
     15 H5          0.1294    0.9313   -1.4787 H2        1 <0>        0.04742
     16 H6         -0.8142    3.0672    0.4815 HC        1 <0>        0.05628
     17 H7         -1.6124    2.6254   -1.0400 HC        1 <0>        0.05628
     18 H8          0.0014    3.3622   -1.0662 HC        1 <0>        0.05628
     19 H9         -2.6911   -0.9446   -0.9919 HC        1 <0>        0.06076
     20 H10        -1.6786   -2.3652   -1.3147 HC        1 <0>        0.06076
     21 H11        -1.2773   -0.8032   -2.0544 HC        1 <0>        0.06076
     22 H12        -2.2278   -1.3314    1.3003 HO        1 <0>        0.43456
@<TRIPOS>BOND
     1    1    2 1
     2    1    7 1
     3    2    8 1
     4    3    5 1
     5    3    7 1
     6    3    9 1
     7    4    6 1
     8    4    8 1
     9    4    9 1
    10    4   10 1
    11    1   11 1
    12    1   12 1
    13    2   13 1
    14    2   14 1
    15    3   15 1
    16    5   16 1
    17    5   17 1
    18    5   18 1
    19    6   19 1
    20    6   20 1
    21    6   21 1
    22   10   22 1
@<TRIPOS>SUBSTRUCTURE
     1 <0>         1 GROUP 0 A     ****
