@<TRIPOS>MOLECULE
AlkEthOH_r886
   28    28     1     0     0
SMALL
USER_CHARGES

@<TRIPOS>ATOM
      1 C1         -0.9340    2.3099   -0.2139 CT        1 <0>       -0.07182
      2 C2         -1.5123    1.2018   -1.0829 CT        1 <0>       -0.07337
      3 C3          0.1635    1.9046    0.7604 CT        1 <0>       -0.07576
      4 C4         -0.4966    0.1763   -1.5792 CT        1 <0>       -0.07328
      5 C5         -0.0556    0.5594    1.4528 CT        1 <0>       -0.10119
      6 C6         -0.3118   -1.0123   -0.6090 CT        1 <0>       -0.04138
      7 C7          0.4846   -0.6723    0.6863 CT        1 <0>        0.15571
      8 C8          0.3330   -2.1658   -1.4025 CT        1 <0>       -0.08937
      9 C9          0.4773   -1.8714    1.6547 CT        1 <0>       -0.12531
     10 O1          1.8517   -0.4303    0.3332 OH        1 <0>       -0.59387
     11 H1         -0.5367    3.1026   -0.8608 HC        1 <0>        0.03466
     12 H2         -1.7591    2.7708    0.3443 HC        1 <0>        0.03466
     13 H3         -2.3252    0.6976   -0.5459 HC        1 <0>        0.03519
     14 H4         -1.9860    1.6777   -1.9514 HC        1 <0>        0.03519
     15 H5          1.1331    1.9274    0.2503 HC        1 <0>        0.04380
     16 H6          0.2228    2.6866    1.5289 HC        1 <0>        0.04380
     17 H7         -0.8869   -0.2141   -2.5289 HC        1 <0>        0.04843
     18 H8          0.4636    0.6485   -1.8178 HC        1 <0>        0.04843
     19 H9          0.4903    0.6257    2.4048 HC        1 <0>        0.04311
     20 H10        -1.1120    0.4229    1.7137 HC        1 <0>        0.04311
     21 H11        -1.3072   -1.3586   -0.3086 HC        1 <0>        0.04429
     22 H12         1.3250   -1.8666   -1.7218 HC        1 <0>        0.03803
     23 H13        -0.2802   -2.3877   -2.2686 HC        1 <0>        0.03803
     24 H14         0.4004   -3.0409   -0.7660 HC        1 <0>        0.03803
     25 H15         0.8527   -2.7466    1.1373 HC        1 <0>        0.04147
     26 H16        -0.5376   -2.0491    1.9905 HC        1 <0>        0.04147
     27 H17         1.1120   -1.6447    2.5035 HC        1 <0>        0.04147
     28 H18         2.3251   -0.2964    1.1665 HO        1 <0>        0.39647
@<TRIPOS>BOND
     1    1    2 1
     2    1    3 1
     3    2    4 1
     4    3    5 1
     5    4    6 1
     6    5    7 1
     7    6    7 1
     8    6    8 1
     9    7    9 1
    10    7   10 1
    11    1   11 1
    12    1   12 1
    13    2   13 1
    14    2   14 1
    15    3   15 1
    16    3   16 1
    17    4   17 1
    18    4   18 1
    19    5   19 1
    20    5   20 1
    21    6   21 1
    22    8   22 1
    23    8   23 1
    24    8   24 1
    25    9   25 1
    26    9   26 1
    27    9   27 1
    28   10   28 1
@<TRIPOS>SUBSTRUCTURE
     1 <0>         1 GROUP 0 A     ****
