@<TRIPOS>MOLECULE
AlkEthOH_c837
   23    22     1     0     0
SMALL
USER_CHARGES

@<TRIPOS>ATOM
      1 C1          0.6531    0.5941    2.7736 CT        1 <0>       -0.12572
      2 C2         -1.4768    0.9914   -0.9642 CT        1 <0>       -0.10969
      3 C3          0.7894    0.7225   -1.9357 CT        1 <0>       -0.10969
      4 C4          0.6179   -2.0687   -0.9565 CT        1 <0>        0.12937
      5 C5         -0.2195    0.1654    1.6034 CT        1 <0>        0.34410
      6 C6         -0.1580    0.2164   -0.8377 CT        1 <0>        0.34877
      7 O1         -0.4706   -1.2261    1.7539 OH        1 <0>       -0.61156
      8 O2         -0.4795   -1.1692   -1.0349 OS        1 <0>       -0.43023
      9 O3          0.4961    0.4894    0.4118 OS        1 <0>       -0.44401
     10 H1          1.6129    0.0677    2.7613 HC        1 <0>        0.05135
     11 H2          0.1500    0.4065    3.7275 HC        1 <0>        0.05135
     12 H3          0.8677    1.6676    2.7219 HC        1 <0>        0.05135
     13 H4         -2.2017    0.6774   -0.2059 HC        1 <0>        0.05248
     14 H5         -1.9336    0.8396   -1.9484 HC        1 <0>        0.05248
     15 H6         -1.3088    2.0707   -0.8741 HC        1 <0>        0.05248
     16 H7          1.7539    0.2037   -1.8968 HC        1 <0>        0.05248
     17 H8          0.3671    0.5654   -2.9339 HC        1 <0>        0.05248
     18 H9          1.0111    1.7875   -1.8031 HC        1 <0>        0.05248
     19 H10         0.2653   -3.0900   -1.1201 H1        1 <0>        0.03586
     20 H11         1.0875   -1.9871    0.0270 H1        1 <0>        0.03586
     21 H12         1.3462   -1.8090   -1.7285 H1        1 <0>        0.03586
     22 H13        -1.1628    0.7177    1.6609 H2        1 <0>        0.02878
     23 H14        -0.9267   -1.3443    2.6043 HO        1 <0>        0.40337
@<TRIPOS>BOND
     1    1    5 1
     2    2    6 1
     3    3    6 1
     4    4    8 1
     5    5    7 1
     6    5    9 1
     7    6    8 1
     8    6    9 1
     9    1   10 1
    10    1   11 1
    11    1   12 1
    12    2   13 1
    13    2   14 1
    14    2   15 1
    15    3   16 1
    16    3   17 1
    17    3   18 1
    18    4   19 1
    19    4   20 1
    20    4   21 1
    21    5   22 1
    22    7   23 1
@<TRIPOS>SUBSTRUCTURE
     1 <0>         1 GROUP 0 A     ****
