@<TRIPOS>MOLECULE
AlkEthOH_c1133
   23    22     1     0     0
SMALL
USER_CHARGES

@<TRIPOS>ATOM
      1 C1          1.3979    1.0564   -1.8399 CT        1 <0>       -0.09226
      2 C2          5.1832   -4.2033    2.1255 CT        1 <0>       -0.09226
      3 C3          1.4696   -0.4058   -1.4280 CT        1 <0>       -0.07986
      4 C4          3.9722   -3.9278    1.2486 CT        1 <0>       -0.07986
      5 C5          2.6412   -0.7215   -0.4958 CT        1 <0>       -0.07915
      6 C6          3.8954   -2.4552    0.8462 CT        1 <0>       -0.07915
      7 C7          2.6940   -2.1886   -0.0635 CT        1 <0>       -0.07842
      8 H1          1.2955    1.6913   -0.9539 HC        1 <0>        0.03237
      9 H2          0.5363    1.2402   -2.4894 HC        1 <0>        0.03237
     10 H3          2.3033    1.3697   -2.3678 HC        1 <0>        0.03237
     11 H4          6.1101   -3.9279    1.6123 HC        1 <0>        0.03237
     12 H5          5.1270   -3.6376    3.0610 HC        1 <0>        0.03237
     13 H6          5.2364   -5.2676    2.3749 HC        1 <0>        0.03237
     14 H7          1.5717   -1.0173   -2.3325 HC        1 <0>        0.03809
     15 H8          0.5257   -0.6979   -0.9535 HC        1 <0>        0.03809
     16 H9          3.0633   -4.2137    1.7907 HC        1 <0>        0.03809
     17 H10         4.0269   -4.5564    0.3522 HC        1 <0>        0.03809
     18 H11         3.5720   -0.4682   -1.0184 HC        1 <0>        0.03901
     19 H12         2.5908   -0.0762    0.3896 HC        1 <0>        0.03901
     20 H13         3.8205   -1.8317    1.7455 HC        1 <0>        0.03901
     21 H14         4.8192   -2.1675    0.3296 HC        1 <0>        0.03901
     22 H15         1.7748   -2.4563    0.4695 HC        1 <0>        0.03917
     23 H16         2.7555   -2.8311   -0.9502 HC        1 <0>        0.03917
@<TRIPOS>BOND
     1    1    3 1
     2    2    4 1
     3    3    5 1
     4    4    6 1
     5    5    7 1
     6    6    7 1
     7    1    8 1
     8    1    9 1
     9    1   10 1
    10    2   11 1
    11    2   12 1
    12    2   13 1
    13    3   14 1
    14    3   15 1
    15    4   16 1
    16    4   17 1
    17    5   18 1
    18    5   19 1
    19    6   20 1
    20    6   21 1
    21    7   22 1
    22    7   23 1
@<TRIPOS>SUBSTRUCTURE
     1 <0>         1 GROUP 0 A     ****
