@<TRIPOS>MOLECULE
AlkEthOH_r847
   19    19     1     0     0
SMALL
USER_CHARGES

@<TRIPOS>ATOM
      1 C1         -1.0644    1.0468    0.6889 CT        1 <0>       -0.08855
      2 C2         -1.0644   -0.4572    1.0247 CT        1 <0>       -0.12274
      3 C3         -0.3325    0.6948   -0.6293 CT        1 <0>       -0.06473
      4 C4          0.1624   -0.6102    0.0800 CT        1 <0>        0.12678
      5 C5          0.7028    1.6954   -1.1052 CT        1 <0>       -0.07637
      6 C6          0.1353   -1.8613   -0.7845 CT        1 <0>       -0.10579
      7 O1          1.4394   -0.5245    0.7530 OH        1 <0>       -0.58816
      8 H1         -2.0506    1.5045    0.5750 HC        1 <0>        0.05208
      9 H2         -0.4743    1.6492    1.3895 HC        1 <0>        0.05208
     10 H3         -0.8890   -0.6944    2.0779 HC        1 <0>        0.05393
     11 H4         -1.9668   -0.9835    0.6921 HC        1 <0>        0.05393
     12 H5         -1.0417    0.4837   -1.4435 HC        1 <0>        0.05678
     13 H6          1.4147    1.9148   -0.3060 HC        1 <0>        0.04008
     14 H7          0.2197    2.6278   -1.4064 HC        1 <0>        0.04008
     15 H8          1.2523    1.2958   -1.9608 HC        1 <0>        0.04008
     16 H9          1.0232   -1.8997   -1.4172 HC        1 <0>        0.04402
     17 H10        -0.7504   -1.8584   -1.4214 HC        1 <0>        0.04402
     18 H11         0.1131   -2.7521   -0.1552 HC        1 <0>        0.04402
     19 H12         1.4383   -1.2434    1.3953 HO        1 <0>        0.39846
@<TRIPOS>BOND
     1    1    2 1
     2    1    3 1
     3    2    4 1
     4    3    4 1
     5    3    5 1
     6    4    6 1
     7    4    7 1
     8    1    8 1
     9    1    9 1
    10    2   10 1
    11    2   11 1
    12    3   12 1
    13    5   13 1
    14    5   14 1
    15    5   15 1
    16    6   16 1
    17    6   17 1
    18    6   18 1
    19    7   19 1
@<TRIPOS>SUBSTRUCTURE
     1 <0>         1 GROUP 0 A     ****
