@<TRIPOS>MOLECULE
AlkEthOH_c1124
   21    20     1     0     0
SMALL
USER_CHARGES

@<TRIPOS>ATOM
      1 C1          0.3518   -0.1532   -0.8755 CT        1 <0>       -0.09145
      2 C2         -1.9580    5.0105   -3.8724 CT        1 <0>       -0.13116
      3 C3         -0.3822    0.5571   -2.0016 CT        1 <0>       -0.07954
      4 C4         -0.3539    2.0753   -1.8193 CT        1 <0>       -0.07825
      5 C5         -1.1204    2.7816   -2.9380 CT        1 <0>       -0.07221
      6 C6         -1.1547    4.3061   -2.7873 CT        1 <0>        0.13869
      7 O1          0.1860    4.7956   -2.8301 OH        1 <0>       -0.60086
      8 H1          1.3939    0.1767   -0.8171 HC        1 <0>        0.03260
      9 H2         -0.1258    0.0434    0.0898 HC        1 <0>        0.03260
     10 H3          0.3469   -1.2348   -1.0428 HC        1 <0>        0.03260
     11 H4         -1.5653    4.7544   -4.8626 HC        1 <0>        0.04209
     12 H5         -1.9242    6.0977   -3.7623 HC        1 <0>        0.04209
     13 H6         -3.0049    4.6880   -3.8573 HC        1 <0>        0.04209
     14 H7         -1.4200    0.2053   -2.0330 HC        1 <0>        0.03649
     15 H8          0.0811    0.2878   -2.9581 HC        1 <0>        0.03649
     16 H9          0.6859    2.4239   -1.8093 HC        1 <0>        0.04774
     17 H10        -0.7915    2.3272   -0.8468 HC        1 <0>        0.04774
     18 H11        -0.6644    2.5376   -3.9066 HC        1 <0>        0.04739
     19 H12        -2.1456    2.3928   -2.9922 HC        1 <0>        0.04739
     20 H13        -1.5600    4.5727   -1.8052 H1        1 <0>        0.02981
     21 H14         0.1340    5.7498   -2.6701 HO        1 <0>        0.39766
@<TRIPOS>BOND
     1    1    3 1
     2    2    6 1
     3    3    4 1
     4    4    5 1
     5    5    6 1
     6    6    7 1
     7    1    8 1
     8    1    9 1
     9    1   10 1
    10    2   11 1
    11    2   12 1
    12    2   13 1
    13    3   14 1
    14    3   15 1
    15    4   16 1
    16    4   17 1
    17    5   18 1
    18    5   19 1
    19    6   20 1
    20    7   21 1
@<TRIPOS>SUBSTRUCTURE
     1 <0>         1 GROUP 0 A     ****
