@<TRIPOS>MOLECULE
AlkEthOH_c380
   30    29     1     0     0
SMALL
USER_CHARGES

@<TRIPOS>ATOM
      1 C1          0.1736    0.8630    0.6368 CT        1 <0>       -0.09005
      2 C2          1.0340   -0.7617    2.3192 CT        1 <0>       -0.09005
      3 C3          1.4313    3.8775    1.4260 CT        1 <0>       -0.09021
      4 C4          1.8014    3.8775    3.8788 CT        1 <0>       -0.09021
      5 C5         -2.3175    2.9808    4.3909 CT        1 <0>        0.11561
      6 C6          1.3989    1.6813    2.7552 CT        1 <0>       -0.05858
      7 C7         -0.4976    3.4211    2.9707 CT        1 <0>        0.13428
      8 C8          0.4443    0.6422    2.1225 CT        1 <0>       -0.06650
      9 C9          1.0091    3.1911    2.7381 CT        1 <0>       -0.04576
     10 O1         -0.9237    2.8042    4.1791 OS        1 <0>       -0.41887
     11 H1          1.1008    0.8543    0.0548 HC        1 <0>        0.03148
     12 H2         -0.4811    0.0807    0.2368 HC        1 <0>        0.03148
     13 H3         -0.3414    1.8111    0.4662 HC        1 <0>        0.03148
     14 H4          2.0005   -0.8539    1.8120 HC        1 <0>        0.03148
     15 H5          1.1856   -0.9833    3.3812 HC        1 <0>        0.03148
     16 H6          0.3695   -1.5266    1.9031 HC        1 <0>        0.03148
     17 H7          0.9098    3.4440    0.5654 HC        1 <0>        0.03694
     18 H8          1.2362    4.9511    1.4319 HC        1 <0>        0.03694
     19 H9          2.5074    3.7584    1.2512 HC        1 <0>        0.03694
     20 H10         1.5509    3.4379    4.8512 HC        1 <0>        0.03694
     21 H11         1.5843    4.9500    3.9343 HC        1 <0>        0.03694
     22 H12         2.8822    3.7680    3.7330 HC        1 <0>        0.03694
     23 H13        -2.6092    2.4954    5.3255 H1        1 <0>        0.03158
     24 H14        -2.8718    2.5476    3.5545 H1        1 <0>        0.03158
     25 H15        -2.5348    4.0496    4.4548 H1        1 <0>        0.03158
     26 H16         2.3940    1.5695    2.3019 HC        1 <0>        0.04235
     27 H17         1.5283    1.3842    3.8062 HC        1 <0>        0.04235
     28 H18        -0.7192    4.4922    3.0416 H1        1 <0>        0.02656
     29 H19        -1.0943    3.0136    2.1482 H1        1 <0>        0.02656
     30 H20        -0.5146    0.6606    2.6532 HC        1 <0>        0.05726
@<TRIPOS>BOND
     1    1    8 1
     2    2    8 1
     3    3    9 1
     4    4    9 1
     5    5   10 1
     6    6    8 1
     7    6    9 1
     8    7    9 1
     9    7   10 1
    10    1   11 1
    11    1   12 1
    12    1   13 1
    13    2   14 1
    14    2   15 1
    15    2   16 1
    16    3   17 1
    17    3   18 1
    18    3   19 1
    19    4   20 1
    20    4   21 1
    21    4   22 1
    22    5   23 1
    23    5   24 1
    24    5   25 1
    25    6   26 1
    26    6   27 1
    27    7   28 1
    28    7   29 1
    29    8   30 1
@<TRIPOS>SUBSTRUCTURE
     1 <0>         1 GROUP 0 A     ****
