@<TRIPOS>MOLECULE
AlkEthOH_r1015
   22    22     1     0     0
SMALL
USER_CHARGES

@<TRIPOS>ATOM
      1 C1          0.6220   -0.0488    1.4626 CT        1 <0>       -0.11020
      2 C2         -0.8611    0.0489    1.7888 CT        1 <0>        0.12617
      3 C3         -1.4850   -0.1348   -0.4851 CT        1 <0>        0.12772
      4 C4          0.9079    0.4617    0.0421 CT        1 <0>       -0.06138
      5 C5         -0.0312   -0.2419   -0.9645 CT        1 <0>       -0.09689
      6 C6          2.3878    0.2669   -0.2921 CT        1 <0>       -0.08965
      7 C7          0.0919    0.3175   -2.3814 CT        1 <0>       -0.08917
      8 O1         -1.6324   -0.6695    0.8295 OS        1 <0>       -0.41436
      9 H1          1.2020    0.5192    2.1987 HC        1 <0>        0.05095
     10 H2          0.9336   -1.0987    1.5360 HC        1 <0>        0.05095
     11 H3         -1.0556   -0.3919    2.7717 H1        1 <0>        0.04554
     12 H4         -1.1955    1.0925    1.8223 H1        1 <0>        0.04554
     13 H5         -1.8391    0.9035   -0.4961 H1        1 <0>        0.04621
     14 H6         -2.1422   -0.7112   -1.1451 H1        1 <0>        0.04621
     15 H7          0.6989    1.5402    0.0223 HC        1 <0>        0.04674
     16 H8          0.2355   -1.3075   -0.9887 HC        1 <0>        0.06139
     17 H9          2.6296   -0.7937   -0.2811 HC        1 <0>        0.03528
     18 H10         3.0008    0.7820    0.4445 HC        1 <0>        0.03528
     19 H11         2.5971    0.6724   -1.2797 HC        1 <0>        0.03528
     20 H12        -0.1677    1.3745   -2.3835 HC        1 <0>        0.03613
     21 H13        -0.5819   -0.2175   -3.0479 HC        1 <0>        0.03613
     22 H14         1.1142    0.1997   -2.7359 HC        1 <0>        0.03613
@<TRIPOS>BOND
     1    1    2 1
     2    1    4 1
     3    2    8 1
     4    3    5 1
     5    3    8 1
     6    4    5 1
     7    4    6 1
     8    5    7 1
     9    1    9 1
    10    1   10 1
    11    2   11 1
    12    2   12 1
    13    3   13 1
    14    3   14 1
    15    4   15 1
    16    5   16 1
    17    6   17 1
    18    6   18 1
    19    6   19 1
    20    7   20 1
    21    7   21 1
    22    7   22 1
@<TRIPOS>SUBSTRUCTURE
     1 <0>         1 GROUP 0 A     ****
