@<TRIPOS>MOLECULE
AlkEthOH_c415
   35    34     1     0     0
SMALL
USER_CHARGES

@<TRIPOS>ATOM
      1 C1          2.1632    1.4206    1.1386 CT        1 <0>       -0.09105
      2 C2          0.8902    1.8158    3.2557 CT        1 <0>       -0.09105
      3 C3         -0.2670   -2.0123    0.1272 CT        1 <0>       -0.09545
      4 C4         -0.1453    1.0336   -2.6307 CT        1 <0>       -0.08646
      5 C5         -1.3084   -1.1713   -2.5260 CT        1 <0>       -0.08646
      6 C6         -2.6463    0.9349   -2.4849 CT        1 <0>       -0.08646
      7 C7          0.1520   -0.0046    1.6235 CT        1 <0>       -0.07204
      8 C8         -1.2653    0.2464   -0.4581 CT        1 <0>       -0.06386
      9 C9          0.7768    1.3958    1.7899 CT        1 <0>       -0.06724
     10 C10        -0.0534   -0.4942    0.1693 CT        1 <0>       -0.06109
     11 C11        -1.3335    0.2833   -2.0126 CT        1 <0>       -0.05245
     12 H1          2.8327    0.7005    1.6209 HC        1 <0>        0.03272
     13 H2          2.6189    2.4121    1.2314 HC        1 <0>        0.03272
     14 H3          2.1074    1.1705    0.0735 HC        1 <0>        0.03272
     15 H4          1.5019    1.1015    3.8178 HC        1 <0>        0.03272
     16 H5         -0.0950    1.8642    3.7319 HC        1 <0>        0.03272
     17 H6          1.3664    2.7957    3.3549 HC        1 <0>        0.03272
     18 H7         -1.1631   -2.3012    0.6849 HC        1 <0>        0.03296
     19 H8          0.5720   -2.5517    0.5744 HC        1 <0>        0.03296
     20 H9         -0.3799   -2.3669   -0.9031 HC        1 <0>        0.03296
     21 H10        -0.1088    2.0773   -2.3025 HC        1 <0>        0.03352
     22 H11         0.8044    0.5570   -2.3645 HC        1 <0>        0.03352
     23 H12        -0.2125    1.0437   -3.7249 HC        1 <0>        0.03352
     24 H13        -2.1398   -1.7537   -2.1130 HC        1 <0>        0.03352
     25 H14        -0.3775   -1.6756   -2.2430 HC        1 <0>        0.03352
     26 H15        -1.3893   -1.2065   -3.6184 HC        1 <0>        0.03352
     27 H16        -3.5263    0.4341   -2.0699 HC        1 <0>        0.03352
     28 H17        -2.6972    1.9852   -2.1752 HC        1 <0>        0.03352
     29 H18        -2.7299    0.9083   -3.5771 HC        1 <0>        0.03352
     30 H19         0.7801   -0.7333    2.1542 HC        1 <0>        0.03936
     31 H20        -0.8219   -0.0119    2.1320 HC        1 <0>        0.03936
     32 H21        -1.2729    1.2886   -0.1092 HC        1 <0>        0.03888
     33 H22        -2.1936   -0.1935   -0.0678 HC        1 <0>        0.03888
     34 H23         0.1595    2.1337    1.2648 HC        1 <0>        0.04741
     35 H24         0.8505   -0.2614   -0.4002 HC        1 <0>        0.05284
@<TRIPOS>BOND
     1    1    9 1
     2    2    9 1
     3    3   10 1
     4    4   11 1
     5    5   11 1
     6    6   11 1
     7    7    9 1
     8    7   10 1
     9    8   10 1
    10    8   11 1
    11    1   12 1
    12    1   13 1
    13    1   14 1
    14    2   15 1
    15    2   16 1
    16    2   17 1
    17    3   18 1
    18    3   19 1
    19    3   20 1
    20    4   21 1
    21    4   22 1
    22    4   23 1
    23    5   24 1
    24    5   25 1
    25    5   26 1
    26    6   27 1
    27    6   28 1
    28    6   29 1
    29    7   30 1
    30    7   31 1
    31    8   32 1
    32    8   33 1
    33    9   34 1
    34   10   35 1
@<TRIPOS>SUBSTRUCTURE
     1 <0>         1 GROUP 0 A     ****
