@<TRIPOS>MOLECULE
AlkEthOH_r712
   18    18     1     0     0
SMALL
USER_CHARGES

@<TRIPOS>ATOM
      1 C1          0.7424    1.8407    0.1229 CT        1 <0>       -0.14928
      2 C2          0.6174    0.9313    1.3361 CT        1 <0>        0.14024
      3 C3          0.8362    1.0089   -1.1473 CT        1 <0>        0.14024
      4 C4         -0.3731   -0.7175   -0.0553 CT        1 <0>        0.52052
      5 C5         -1.7053   -1.4523   -0.1954 CT        1 <0>       -0.08905
      6 O1         -0.4734    0.0294    1.1648 OS        1 <0>       -0.44513
      7 O2         -0.2629    0.1042   -1.2255 OS        1 <0>       -0.44513
      8 O3          0.6187   -1.7447   -0.0002 OH        1 <0>       -0.63836
      9 H1         -0.1604    2.4609    0.0631 HC        1 <0>        0.06036
     10 H2          1.6069    2.5045    0.2210 HC        1 <0>        0.06036
     11 H3          1.5390    0.3648    1.5090 H1        1 <0>        0.05795
     12 H4          0.4246    1.5258    2.2346 H1        1 <0>        0.05795
     13 H5          0.7998    1.6588   -2.0273 H1        1 <0>        0.05795
     14 H6          1.7774    0.4497   -1.1909 H1        1 <0>        0.05795
     15 H7         -1.7044   -2.0464   -1.1076 HC        1 <0>        0.06319
     16 H8         -2.5205   -0.7321   -0.2392 HC        1 <0>        0.06319
     17 H9         -1.8551   -2.1099    0.6591 HC        1 <0>        0.06319
     18 H10         0.4052   -2.2884    0.7726 HO        1 <0>        0.42386
@<TRIPOS>BOND
     1    1    2 1
     2    1    3 1
     3    2    6 1
     4    3    7 1
     5    4    5 1
     6    4    6 1
     7    4    7 1
     8    4    8 1
     9    1    9 1
    10    1   10 1
    11    2   11 1
    12    2   12 1
    13    3   13 1
    14    3   14 1
    15    5   15 1
    16    5   16 1
    17    5   17 1
    18    8   18 1
@<TRIPOS>SUBSTRUCTURE
     1 <0>         1 GROUP 0 A     ****
