@<TRIPOS>MOLECULE
AlkEthOH_r825
   24    24     1     0     0
SMALL
USER_CHARGES

@<TRIPOS>ATOM
      1 C1         -0.8804   -0.7109   -0.0033 CT        1 <0>       -0.16306
      2 C2          0.9470    1.4125    1.2651 CT        1 <0>        0.09613
      3 C3          0.4463    1.8303   -0.1081 CT        1 <0>        0.10117
      4 C4          0.0416   -0.8146    1.2158 CT        1 <0>        0.14675
      5 C5         -0.1985   -0.1802   -1.2822 CT        1 <0>        0.34347
      6 C6         -0.5325   -1.8029    2.2275 CT        1 <0>       -0.09373
      7 C7          0.5186   -1.3219   -2.0116 CT        1 <0>       -0.11631
      8 O1          0.1033    0.4484    1.8858 OS        1 <0>       -0.41898
      9 O2          0.7894    0.8238   -1.0518 OS        1 <0>       -0.40649
     10 O3         -1.2349    0.3154   -2.1371 OH        1 <0>       -0.61599
     11 H1         -1.3362   -1.6835   -0.2320 HC        1 <0>        0.06541
     12 H2         -1.7239   -0.0524    0.2483 HC        1 <0>        0.06541
     13 H3          1.9681    1.0168    1.2180 H1        1 <0>        0.05655
     14 H4          0.9555    2.2864    1.9243 H1        1 <0>        0.05655
     15 H5         -0.6274    2.0462   -0.1211 H1        1 <0>        0.06616
     16 H6          0.9770    2.7374   -0.4149 H1        1 <0>        0.06616
     17 H7          1.0497   -1.1484    0.9435 H1        1 <0>        0.04770
     18 H8         -1.5364   -1.4953    2.5166 HC        1 <0>        0.04568
     19 H9          0.0994   -1.8340    3.1139 HC        1 <0>        0.04568
     20 H10        -0.5780   -2.7982    1.7875 HC        1 <0>        0.04568
     21 H11         0.9947   -0.9371   -2.9097 HC        1 <0>        0.05300
     22 H12        -0.2023   -2.0879   -2.2851 HC        1 <0>        0.05300
     23 H13         1.2734   -1.7528   -1.3589 HC        1 <0>        0.05300
     24 H14        -1.8168   -0.4363   -2.3188 HO        1 <0>        0.40706
@<TRIPOS>BOND
     1    1    4 1
     2    1    5 1
     3    2    3 1
     4    2    8 1
     5    3    9 1
     6    4    6 1
     7    4    8 1
     8    5    7 1
     9    5    9 1
    10    5   10 1
    11    1   11 1
    12    1   12 1
    13    2   13 1
    14    2   14 1
    15    3   15 1
    16    3   16 1
    17    4   17 1
    18    6   18 1
    19    6   19 1
    20    6   20 1
    21    7   21 1
    22    7   22 1
    23    7   23 1
    24   10   24 1
@<TRIPOS>SUBSTRUCTURE
     1 <0>         1 GROUP 0 A     ****
