@<TRIPOS>MOLECULE
AlkEthOH_r131
   10    10     1     0     0
SMALL
USER_CHARGES

@<TRIPOS>ATOM
      1 C1         -0.0242    0.2672    1.0591 CT        1 <0>       -0.14024
      2 C2         -1.1946   -0.3122    1.8457 CT        1 <0>        0.11204
      3 C3          0.8439   -0.5989    1.9647 CT        1 <0>        0.11204
      4 O1         -0.3050   -1.0365    2.7256 OS        1 <0>       -0.42694
      5 H1          0.0003   -0.0002    0.0001 HC        1 <0>        0.06097
      6 H2          0.1201    1.3438    1.1799 HC        1 <0>        0.06097
      7 H3         -1.7980    0.4175    2.3927 H1        1 <0>        0.05529
      8 H4         -1.8438   -0.9926    1.2877 H1        1 <0>        0.05529
      9 H5          1.3411   -1.4400    1.4730 H1        1 <0>        0.05529
     10 H6          1.5577   -0.0548    2.5893 H1        1 <0>        0.05529
@<TRIPOS>BOND
     1    1    2 1
     2    1    3 1
     3    2    4 1
     4    3    4 1
     5    1    5 1
     6    1    6 1
     7    2    7 1
     8    2    8 1
     9    3    9 1
    10    3   10 1
@<TRIPOS>SUBSTRUCTURE
     1 <0>         1 GROUP 0 A     ****
