@<TRIPOS>MOLECULE
AlkEthOH_c1101
   27    26     1     0     0
SMALL
USER_CHARGES

@<TRIPOS>ATOM
      1 C1         -0.4516    2.8720   -2.9284 CT        1 <0>       -0.09161
      2 C2          1.3407   -2.2332    1.2789 CT        1 <0>       -0.09055
      3 C3         -0.9058   -2.5165    2.3431 CT        1 <0>       -0.09055
      4 C4          0.3219    2.2077   -1.7996 CT        1 <0>       -0.07972
      5 C5         -0.4945    1.0883   -1.1470 CT        1 <0>       -0.10945
      6 C6         -0.6032   -0.7166    0.6146 CT        1 <0>       -0.10619
      7 C7          0.0806   -1.5064    1.7504 CT        1 <0>       -0.06471
      8 C8          0.2719    0.3719   -0.0255 CT        1 <0>        0.13538
      9 O1          0.6418    1.3079    0.9826 OH        1 <0>       -0.59426
     10 H1         -1.3926    3.2847   -2.5513 HC        1 <0>        0.03291
     11 H2         -0.6883    2.1522   -3.7185 HC        1 <0>        0.03291
     12 H3          0.1251    3.6908   -3.3706 HC        1 <0>        0.03291
     13 H4          1.1153   -2.9422    0.4768 HC        1 <0>        0.03371
     14 H5          2.0742   -1.5219    0.8838 HC        1 <0>        0.03371
     15 H6          1.8127   -2.7830    2.1001 HC        1 <0>        0.03371
     16 H7         -1.2255   -3.2395    1.5852 HC        1 <0>        0.03371
     17 H8         -0.4562   -3.0714    3.1736 HC        1 <0>        0.03371
     18 H9         -1.8019   -2.0112    2.7191 HC        1 <0>        0.03371
     19 H10         1.2590    1.8016   -2.1970 HC        1 <0>        0.04572
     20 H11         0.5845    2.9694   -1.0576 HC        1 <0>        0.04572
     21 H12        -1.4175    1.5219   -0.7416 HC        1 <0>        0.04222
     22 H13        -0.7818    0.3589   -1.9142 HC        1 <0>        0.04222
     23 H14        -1.5013   -0.2405    1.0313 HC        1 <0>        0.04270
     24 H15        -0.9432   -1.4129   -0.1628 HC        1 <0>        0.04270
     25 H16         0.3640   -0.8119    2.5507 HC        1 <0>        0.05828
     26 H17         1.1853   -0.0741   -0.4333 H1        1 <0>        0.07674
     27 H18        -0.1827    1.6908    1.3208 HO        1 <0>        0.39437
@<TRIPOS>BOND
     1    1    4 1
     2    2    7 1
     3    3    7 1
     4    4    5 1
     5    5    8 1
     6    6    7 1
     7    6    8 1
     8    8    9 1
     9    1   10 1
    10    1   11 1
    11    1   12 1
    12    2   13 1
    13    2   14 1
    14    2   15 1
    15    3   16 1
    16    3   17 1
    17    3   18 1
    18    4   19 1
    19    4   20 1
    20    5   21 1
    21    5   22 1
    22    6   23 1
    23    6   24 1
    24    7   25 1
    25    8   26 1
    26    9   27 1
@<TRIPOS>SUBSTRUCTURE
     1 <0>         1 GROUP 0 A     ****
