@<TRIPOS>MOLECULE
AlkEthOH_c17
   20    19     1     0     0
SMALL
USER_CHARGES

@<TRIPOS>ATOM
      1 C1         -0.1993   -0.0585    1.0779 CT        1 <0>       -0.10103
      2 C2         -1.5538   -2.2007    0.7507 CT        1 <0>       -0.10103
      3 C3          0.9780    0.5960    1.7953 CT        1 <0>        0.13525
      4 C4         -2.8968   -1.5033    0.9118 CT        1 <0>        0.13525
      5 C5         -0.4031   -1.5173    1.4963 CT        1 <0>        0.14496
      6 O1          1.1051    1.9359    1.3370 OH        1 <0>       -0.60489
      7 O2         -3.8813   -2.2381    0.1951 OH        1 <0>       -0.60489
      8 O3          0.7978   -2.2386    1.2172 OH        1 <0>       -0.60334
      9 H1         -1.1007    0.5333    1.2733 HC        1 <0>        0.06223
     10 H2         -0.0202    0.0018   -0.0034 HC        1 <0>        0.06223
     11 H3         -1.6453   -3.2393    1.0964 HC        1 <0>        0.06223
     12 H4         -1.3097   -2.2950   -0.3158 HC        1 <0>        0.06223
     13 H5          1.9147    0.0707    1.5849 H1        1 <0>        0.02855
     14 H6          0.8131    0.6132    2.8772 H1        1 <0>        0.02855
     15 H7         -3.1921   -1.4640    1.9650 H1        1 <0>        0.02855
     16 H8         -2.8722   -0.4877    0.5076 H1        1 <0>        0.02855
     17 H9         -0.5762   -1.5702    2.5777 H1        1 <0>        0.03242
     18 H10         1.8592    2.3229    1.8101 HO        1 <0>        0.40102
     19 H11        -4.7227   -1.7700    0.3170 HO        1 <0>        0.40102
     20 H12         0.6368   -3.1536    1.4920 HO        1 <0>        0.40214
@<TRIPOS>BOND
     1    1    3 1
     2    1    5 1
     3    2    4 1
     4    2    5 1
     5    3    6 1
     6    4    7 1
     7    5    8 1
     8    1    9 1
     9    1   10 1
    10    2   11 1
    11    2   12 1
    12    3   13 1
    13    3   14 1
    14    4   15 1
    15    4   16 1
    16    5   17 1
    17    6   18 1
    18    7   19 1
    19    8   20 1
@<TRIPOS>SUBSTRUCTURE
     1 <0>         1 GROUP 0 A     ****
