@<TRIPOS>MOLECULE
AlkEthOH_c570
   23    22     1     0     0
SMALL
USER_CHARGES

@<TRIPOS>ATOM
      1 C1         -0.3690   -2.0667   -1.9638 CT        1 <0>       -0.10795
      2 C2          0.1065    0.0079   -3.3135 CT        1 <0>       -0.10795
      3 C3         -0.5346    1.5294    3.5516 CT        1 <0>        0.12126
      4 C4         -0.4530    0.8641    1.2992 CT        1 <0>        0.09260
      5 C5          0.2608   -0.6822   -1.9667 CT        1 <0>        0.14654
      6 C6          0.2970   -0.0144    0.3070 CT        1 <0>        0.34380
      7 O1          1.6451    0.4403    0.2666 OH        1 <0>       -0.63022
      8 O2          0.1492    0.7482    2.5809 OS        1 <0>       -0.43829
      9 O3         -0.3524    0.1127   -0.9607 OS        1 <0>       -0.42598
     10 H1         -1.4341   -2.0191   -2.2099 HC        1 <0>        0.04248
     11 H2          0.1302   -2.7139   -2.6930 HC        1 <0>        0.04248
     12 H3         -0.2563   -2.5493   -0.9867 HC        1 <0>        0.04248
     13 H4         -0.9473    0.1050   -3.5918 HC        1 <0>        0.04248
     14 H5          0.6238   -0.5601   -4.0942 HC        1 <0>        0.04248
     15 H6          0.5584    1.0058   -3.2990 HC        1 <0>        0.04248
     16 H7         -0.0452    1.4161    4.5221 H1        1 <0>        0.03693
     17 H8         -1.5755    1.2026    3.6162 H1        1 <0>        0.03693
     18 H9         -0.5023    2.5790    3.2501 H1        1 <0>        0.03693
     19 H10        -0.4253    1.9141    0.9895 H1        1 <0>        0.05229
     20 H11        -1.5012    0.5559    1.3799 H1        1 <0>        0.05229
     21 H12         1.3238   -0.7638   -1.7175 H1        1 <0>        0.06357
     22 H13         0.2650   -1.0589    0.6418 H2        1 <0>        0.04519
     23 H14         2.0062    0.3514    1.1647 HO        1 <0>        0.42718
@<TRIPOS>BOND
     1    1    5 1
     2    2    5 1
     3    3    8 1
     4    4    6 1
     5    4    8 1
     6    5    9 1
     7    6    7 1
     8    6    9 1
     9    1   10 1
    10    1   11 1
    11    1   12 1
    12    2   13 1
    13    2   14 1
    14    2   15 1
    15    3   16 1
    16    3   17 1
    17    3   18 1
    18    4   19 1
    19    4   20 1
    20    5   21 1
    21    6   22 1
    22    7   23 1
@<TRIPOS>SUBSTRUCTURE
     1 <0>         1 GROUP 0 A     ****
