@<TRIPOS>MOLECULE
AlkEthOH_c949
   19    18     1     0     0
SMALL
USER_CHARGES

@<TRIPOS>ATOM
      1 C1         -0.0373   -0.7559    0.7415 CT        1 <0>       -0.08929
      2 C2         -3.5911   -2.3141    0.3548 CT        1 <0>       -0.12263
      3 C3         -1.4516   -1.2223    1.0682 CT        1 <0>       -0.06153
      4 C4         -2.2785   -1.0063   -1.3560 CT        1 <0>        0.10422
      5 C5         -2.1889   -1.8961   -0.1080 CT        1 <0>        0.15326
      6 O1         -3.0152    0.1761   -1.0866 OH        1 <0>       -0.59479
      7 O2         -1.4744   -3.0845   -0.4593 OH        1 <0>       -0.59846
      8 H1          0.5550   -1.5972    0.3666 HC        1 <0>        0.03651
      9 H2          0.4709   -0.3664    1.6284 HC        1 <0>        0.03651
     10 H3         -0.0393    0.0214   -0.0286 HC        1 <0>        0.03651
     11 H4         -4.1432   -2.7974   -0.4594 HC        1 <0>        0.04685
     12 H5         -3.5299   -3.0513    1.1638 HC        1 <0>        0.04685
     13 H6         -4.1760   -1.4593    0.7092 HC        1 <0>        0.04685
     14 H7         -2.0289   -0.3680    1.4416 HC        1 <0>        0.05316
     15 H8         -1.3723   -1.9396    1.8957 HC        1 <0>        0.05316
     16 H9         -2.7688   -1.5446   -2.1760 H1        1 <0>        0.02703
     17 H10        -1.2818   -0.7317   -1.7184 H1        1 <0>        0.02703
     18 H11        -3.0343    0.6908   -1.9104 HO        1 <0>        0.40203
     19 H12        -1.9790   -3.5034   -1.1716 HO        1 <0>        0.39673
@<TRIPOS>BOND
     1    1    3 1
     2    2    5 1
     3    3    5 1
     4    4    5 1
     5    4    6 1
     6    5    7 1
     7    1    8 1
     8    1    9 1
     9    1   10 1
    10    2   11 1
    11    2   12 1
    12    2   13 1
    13    3   14 1
    14    3   15 1
    15    4   16 1
    16    4   17 1
    17    6   18 1
    18    7   19 1
@<TRIPOS>SUBSTRUCTURE
     1 <0>         1 GROUP 0 A     ****
