@<TRIPOS>MOLECULE
AlkEthOH_r776
   32    32     1     0     0
SMALL
USER_CHARGES

@<TRIPOS>ATOM
      1 C1         -0.0905    1.3975    2.2095 CT        1 <0>       -0.06288
      2 C2         -1.0875    0.4657    1.5029 CT        1 <0>       -0.07323
      3 C3          1.2943    1.5722    1.5636 CT        1 <0>       -0.11000
      4 C4         -0.5304   -0.9314    1.2178 CT        1 <0>       -0.09745
      5 C5         -0.4329   -0.6420   -1.3993 CT        1 <0>       -0.06973
      6 C6          1.3018    2.1480    0.1483 CT        1 <0>        0.13611
      7 C7          0.8408    0.2101   -1.2243 CT        1 <0>        0.14184
      8 C8         -0.8368   -1.5130   -0.1769 CT        1 <0>        0.15500
      9 C9          1.5245    0.4417   -2.5699 CT        1 <0>       -0.11471
     10 C10        -2.3181   -1.8996   -0.2855 CT        1 <0>       -0.12336
     11 O1          0.4122    1.4843   -0.7343 OS        1 <0>       -0.42691
     12 O2         -0.0773   -2.7335   -0.2519 OH        1 <0>       -0.60900
     13 H1         -0.5575    2.3848    2.3149 HC        1 <0>        0.03545
     14 H2          0.0625    1.0230    3.2299 HC        1 <0>        0.03545
     15 H3         -1.9671    0.3605    2.1519 HC        1 <0>        0.05021
     16 H4         -1.4706    0.9480    0.5996 HC        1 <0>        0.05021
     17 H5          1.8865    2.2401    2.2022 HC        1 <0>        0.04171
     18 H6          1.8317    0.6194    1.5717 HC        1 <0>        0.04171
     19 H7          0.5487   -0.9843    1.3886 HC        1 <0>        0.04164
     20 H8         -0.9273   -1.6186    1.9794 HC        1 <0>        0.04164
     21 H9         -1.2664    0.0275   -1.6513 HC        1 <0>        0.06462
     22 H10        -0.2971   -1.3131   -2.2578 HC        1 <0>        0.06462
     23 H11         0.9740    3.1922    0.1953 H1        1 <0>        0.04294
     24 H12         2.3176    2.1517   -0.2627 H1        1 <0>        0.04294
     25 H13         1.5488   -0.2760   -0.5454 H1        1 <0>        0.05374
     26 H14         0.8324    0.9252   -3.2576 HC        1 <0>        0.04146
     27 H15         1.8398   -0.5109   -2.9928 HC        1 <0>        0.04146
     28 H16         2.3974    1.0788   -2.4359 HC        1 <0>        0.04146
     29 H17        -2.5141   -2.3066   -1.2733 HC        1 <0>        0.04247
     30 H18        -2.9341   -1.0190   -0.1275 HC        1 <0>        0.04247
     31 H19        -2.5530   -2.6464    0.4676 HC        1 <0>        0.04247
     32 H20        -0.4002   -3.2877    0.4701 HO        1 <0>        0.39565
@<TRIPOS>BOND
     1    1    2 1
     2    1    3 1
     3    2    4 1
     4    3    6 1
     5    4    8 1
     6    5    7 1
     7    5    8 1
     8    6   11 1
     9    7    9 1
    10    7   11 1
    11    8   10 1
    12    8   12 1
    13    1   13 1
    14    1   14 1
    15    2   15 1
    16    2   16 1
    17    3   17 1
    18    3   18 1
    19    4   19 1
    20    4   20 1
    21    5   21 1
    22    5   22 1
    23    6   23 1
    24    6   24 1
    25    7   25 1
    26    9   26 1
    27    9   27 1
    28    9   28 1
    29   10   29 1
    30   10   30 1
    31   10   31 1
    32   12   32 1
@<TRIPOS>SUBSTRUCTURE
     1 <0>         1 GROUP 0 A     ****
