@<TRIPOS>MOLECULE
AlkEthOH_r1020
   26    26     1     0     0
SMALL
USER_CHARGES

@<TRIPOS>ATOM
      1 C1         -1.5291    0.1171    0.9352 CT        1 <0>       -0.10977
      2 C2          1.7211    1.0066   -0.1774 CT        1 <0>       -0.13190
      3 C3         -0.1009   -0.5318   -1.1634 CT        1 <0>       -0.11151
      4 C4         -0.5517   -0.3819    1.9989 CT        1 <0>        0.13411
      5 C5          1.3153    0.9274    1.2885 CT        1 <0>        0.13349
      6 C6         -1.4604   -0.5800   -0.4352 CT        1 <0>       -0.05016
      7 C7          0.5798    0.8453   -1.1940 CT        1 <0>        0.14500
      8 C8         -1.9402   -2.0327   -0.3390 CT        1 <0>       -0.09373
      9 O1          0.8076   -0.3678    1.5841 OS        1 <0>       -0.42281
     10 O2          1.1584    0.9977   -2.4976 OH        1 <0>       -0.60261
     11 H1         -2.5466    0.0149    1.3348 HC        1 <0>        0.04475
     12 H2         -1.3893    1.1932    0.7853 HC        1 <0>        0.04475
     13 H3          2.2198    1.9680   -0.3560 HC        1 <0>        0.05510
     14 H4          2.4799    0.2393   -0.3832 HC        1 <0>        0.05510
     15 H5          0.5838   -1.2803   -0.7450 HC        1 <0>        0.05610
     16 H6         -0.2759   -0.8716   -2.1940 HC        1 <0>        0.05610
     17 H7         -0.6533    0.2133    2.9143 H1        1 <0>        0.04552
     18 H8         -0.7950   -1.4145    2.2698 H1        1 <0>        0.04552
     19 H9          2.2091    1.0671    1.9068 H1        1 <0>        0.04198
     20 H10         0.6189    1.7300    1.5548 H1        1 <0>        0.04198
     21 H11        -2.1802   -0.0542   -1.0781 HC        1 <0>        0.04704
     22 H12        -0.1505    1.6523   -1.0823 H1        1 <0>        0.07285
     23 H13        -1.2588   -2.5998    0.2898 HC        1 <0>        0.03566
     24 H14        -1.9662   -2.4734   -1.3322 HC        1 <0>        0.03566
     25 H15        -2.9369   -2.0585    0.0938 HC        1 <0>        0.03566
     26 H16         1.8234    0.2998   -2.5784 HO        1 <0>        0.39612
@<TRIPOS>BOND
     1    1    4 1
     2    1    6 1
     3    2    5 1
     4    2    7 1
     5    3    6 1
     6    3    7 1
     7    4    9 1
     8    5    9 1
     9    6    8 1
    10    7   10 1
    11    1   11 1
    12    1   12 1
    13    2   13 1
    14    2   14 1
    15    3   15 1
    16    3   16 1
    17    4   17 1
    18    4   18 1
    19    5   19 1
    20    5   20 1
    21    6   21 1
    22    7   22 1
    23    8   23 1
    24    8   24 1
    25    8   25 1
    26   10   26 1
@<TRIPOS>SUBSTRUCTURE
     1 <0>         1 GROUP 0 A     ****
