@<TRIPOS>MOLECULE
AlkEthOH_c451
   29    28     1     0     0
SMALL
USER_CHARGES

@<TRIPOS>ATOM
      1 C1         -0.9342   -1.8242    2.0753 CT        1 <0>       -0.09050
      2 C2         -0.6962   -3.3249    0.0879 CT        1 <0>       -0.09050
      3 C3          2.0109    1.3693   -0.0501 CT        1 <0>       -0.08622
      4 C4          0.4674    1.4891   -2.0121 CT        1 <0>       -0.08622
      5 C5          0.1605    3.0457   -0.0703 CT        1 <0>       -0.08622
      6 C6         -0.0585   -0.9038   -0.1416 CT        1 <0>       -0.07394
      7 C7         -0.3453    0.5609    0.2207 CT        1 <0>       -0.06817
      8 C8         -1.0122   -1.8998    0.5497 CT        1 <0>       -0.06731
      9 C9          0.5518    1.6167   -0.4823 CT        1 <0>       -0.05477
     10 H1          0.0751   -2.0457    2.4346 HC        1 <0>        0.03289
     11 H2         -1.6273   -2.5309    2.5439 HC        1 <0>        0.03289
     12 H3         -1.1880   -0.8185    2.4277 HC        1 <0>        0.03289
     13 H4          0.3236   -3.6151    0.3628 HC        1 <0>        0.03289
     14 H5         -1.3873   -4.0436    0.5411 HC        1 <0>        0.03289
     15 H6         -0.7925   -3.4124   -0.9995 HC        1 <0>        0.03289
     16 H7          2.1205    1.4502    1.0373 HC        1 <0>        0.03359
     17 H8          2.3478    0.3696   -0.3469 HC        1 <0>        0.03359
     18 H9          2.6905    2.0975   -0.5075 HC        1 <0>        0.03359
     19 H10        -0.5556    1.6577   -2.3665 HC        1 <0>        0.03359
     20 H11         1.1217    2.2083   -2.5156 HC        1 <0>        0.03359
     21 H12         0.7727    0.4893   -2.3414 HC        1 <0>        0.03359
     22 H13        -0.8728    3.2706   -0.3571 HC        1 <0>        0.03359
     23 H14         0.8100    3.7959   -0.5325 HC        1 <0>        0.03359
     24 H15         0.2398    3.1777    1.0150 HC        1 <0>        0.03359
     25 H16         0.9758   -1.1561    0.1200 HC        1 <0>        0.04067
     26 H17        -0.1549   -1.0362   -1.2248 HC        1 <0>        0.04067
     27 H18        -0.2348    0.6846    1.3052 HC        1 <0>        0.03915
     28 H19        -1.3969    0.7791   -0.0088 HC        1 <0>        0.03915
     29 H20        -2.0415   -1.6699    0.2463 HC        1 <0>        0.04456
@<TRIPOS>BOND
     1    1    8 1
     2    2    8 1
     3    3    9 1
     4    4    9 1
     5    5    9 1
     6    6    7 1
     7    6    8 1
     8    7    9 1
     9    1   10 1
    10    1   11 1
    11    1   12 1
    12    2   13 1
    13    2   14 1
    14    2   15 1
    15    3   16 1
    16    3   17 1
    17    3   18 1
    18    4   19 1
    19    4   20 1
    20    4   21 1
    21    5   22 1
    22    5   23 1
    23    5   24 1
    24    6   25 1
    25    6   26 1
    26    7   27 1
    27    7   28 1
    28    8   29 1
@<TRIPOS>SUBSTRUCTURE
     1 <0>         1 GROUP 0 A     ****
