@<TRIPOS>MOLECULE
AlkEthOH_r241
   29    29     1     0     0
SMALL
USER_CHARGES

@<TRIPOS>ATOM
      1 C1         -0.3436    0.6861    1.7340 CT        1 <0>       -0.14203
      2 C2         -0.7130    0.6292   -0.7979 CT        1 <0>       -0.05344
      3 C3          0.9028   -0.1577    1.9956 CT        1 <0>        0.13825
      4 C4          1.7510    0.1598   -0.2163 CT        1 <0>        0.13730
      5 C5          0.6499    0.0664   -1.2898 CT        1 <0>       -0.06794
      6 C6         -1.2550    0.2096    0.5890 CT        1 <0>        0.16385
      7 C7          1.0934    0.9095   -2.5064 CT        1 <0>       -0.08705
      8 C8          0.4966   -1.3926   -1.7681 CT        1 <0>       -0.08705
      9 C9         -2.6489    0.8368    0.7676 CT        1 <0>       -0.12761
     10 O1          1.4923   -0.7443    0.8482 OS        1 <0>       -0.40309
     11 O2         -1.4255   -1.2027    0.6441 OH        1 <0>       -0.58135
     12 H1         -0.9054    0.7146    2.6773 HC        1 <0>        0.04912
     13 H2         -0.0446    1.7255    1.5447 HC        1 <0>        0.04912
     14 H3         -0.6532    1.7273   -0.8067 HC        1 <0>        0.04603
     15 H4         -1.4667    0.3707   -1.5558 HC        1 <0>        0.04603
     16 H5          1.6574    0.4387    2.5217 H1        1 <0>        0.04139
     17 H6          0.6407   -0.9845    2.6653 H1        1 <0>        0.04139
     18 H7          2.7099   -0.1457   -0.6522 H1        1 <0>        0.04189
     19 H8          1.8888    1.1858    0.1473 H1        1 <0>        0.04189
     20 H9          2.0432    0.5340   -2.8664 HC        1 <0>        0.03886
     21 H10         1.1960    1.9427   -2.1991 HC        1 <0>        0.03886
     22 H11         0.3436    0.8265   -3.2833 HC        1 <0>        0.03886
     23 H12         1.4599   -1.7575   -2.1042 HC        1 <0>        0.03886
     24 H13        -0.2150   -1.4239   -2.5846 HC        1 <0>        0.03886
     25 H14         0.1395   -1.9990   -0.9440 HC        1 <0>        0.03886
     26 H15        -3.2963    0.5044   -0.0371 HC        1 <0>        0.04169
     27 H16        -2.5604    1.9177    0.7429 HC        1 <0>        0.04169
     28 H17        -3.0616    0.5252    1.7214 HC        1 <0>        0.04169
     29 H18        -1.8303   -1.4003    1.5035 HO        1 <0>        0.39507
@<TRIPOS>BOND
     1    1    3 1
     2    1    6 1
     3    2    5 1
     4    2    6 1
     5    3   10 1
     6    4    5 1
     7    4   10 1
     8    5    7 1
     9    5    8 1
    10    6    9 1
    11    6   11 1
    12    1   12 1
    13    1   13 1
    14    2   14 1
    15    2   15 1
    16    3   16 1
    17    3   17 1
    18    4   18 1
    19    4   19 1
    20    7   20 1
    21    7   21 1
    22    7   22 1
    23    8   23 1
    24    8   24 1
    25    8   25 1
    26    9   26 1
    27    9   27 1
    28    9   28 1
    29   11   29 1
@<TRIPOS>SUBSTRUCTURE
     1 <0>         1 GROUP 0 A     ****
