@<TRIPOS>MOLECULE
AlkEthOH_c941
   30    29     1     0     0
SMALL
USER_CHARGES

@<TRIPOS>ATOM
      1 C1         -1.7962   -1.1067    2.4990 CT        1 <0>       -0.09039
      2 C2          2.3837   -0.8628   -0.5506 CT        1 <0>       -0.08489
      3 C3          2.2191    1.6345   -0.3175 CT        1 <0>       -0.08489
      4 C4          0.7669    0.4362   -1.9309 CT        1 <0>       -0.08489
      5 C5         -1.1074   -1.8323   -0.3584 CT        1 <0>       -0.12281
      6 C6         -2.1263   -0.2507    1.2805 CT        1 <0>       -0.11006
      7 C7          0.2688    0.1740    0.5088 CT        1 <0>       -0.05368
      8 C8          1.4231    0.3344   -0.5318 CT        1 <0>       -0.04336
      9 C9         -1.1254   -0.3716    0.0992 CT        1 <0>        0.15953
     10 O1         -1.6261    0.4221   -0.9802 OH        1 <0>       -0.60046
     11 H1         -1.7522   -2.1693    2.2440 HC        1 <0>        0.03553
     12 H2         -2.5754   -0.9865    3.2590 HC        1 <0>        0.03553
     13 H3         -0.8424   -0.8146    2.9486 HC        1 <0>        0.03553
     14 H4          1.8563   -1.8092   -0.7011 HC        1 <0>        0.03405
     15 H5          3.1316   -0.7572   -1.3444 HC        1 <0>        0.03405
     16 H6          2.9239   -0.9481    0.3997 HC        1 <0>        0.03405
     17 H7          1.5512    2.5040   -0.3007 HC        1 <0>        0.03405
     18 H8          2.9448    1.8204   -1.1111 HC        1 <0>        0.03405
     19 H9          2.7577    1.6169    0.6365 HC        1 <0>        0.03405
     20 H10         0.0655    1.2769   -1.9831 HC        1 <0>        0.03405
     21 H11         0.2107   -0.4765   -2.1734 HC        1 <0>        0.03405
     22 H12         1.5194    0.5882   -2.7130 HC        1 <0>        0.03405
     23 H13        -0.4118   -1.9693   -1.1953 HC        1 <0>        0.04276
     24 H14        -2.0966   -2.1651   -0.6873 HC        1 <0>        0.04276
     25 H15        -0.7370   -2.4973    0.4262 HC        1 <0>        0.04276
     26 H16        -2.1504    0.7923    1.6231 HC        1 <0>        0.04353
     27 H17        -3.1390   -0.4968    0.9376 HC        1 <0>        0.04353
     28 H18         0.6479   -0.4358    1.3409 HC        1 <0>        0.04678
     29 H19         0.0993    1.1783    0.9216 HC        1 <0>        0.04678
     30 H20        -2.5176    0.0939   -1.1673 HO        1 <0>        0.39396
@<TRIPOS>BOND
     1    1    6 1
     2    2    8 1
     3    3    8 1
     4    4    8 1
     5    5    9 1
     6    6    9 1
     7    7    8 1
     8    7    9 1
     9    9   10 1
    10    1   11 1
    11    1   12 1
    12    1   13 1
    13    2   14 1
    14    2   15 1
    15    2   16 1
    16    3   17 1
    17    3   18 1
    18    3   19 1
    19    4   20 1
    20    4   21 1
    21    4   22 1
    22    5   23 1
    23    5   24 1
    24    5   25 1
    25    6   26 1
    26    6   27 1
    27    7   28 1
    28    7   29 1
    29   10   30 1
@<TRIPOS>SUBSTRUCTURE
     1 <0>         1 GROUP 0 A     ****
