@<TRIPOS>MOLECULE
AlkEthOH_r1077
   29    29     1     0     0
SMALL
USER_CHARGES

@<TRIPOS>ATOM
      1 C1          1.9193   -0.4560    0.6368 CT        1 <0>       -0.07016
      2 C2          1.4151   -0.7394    2.0573 CT        1 <0>       -0.09898
      3 C3          1.3207    0.8065   -0.0029 CT        1 <0>       -0.10186
      4 C4         -0.0746   -1.0427    2.1616 CT        1 <0>        0.12900
      5 C5         -1.6586   -0.1305    0.6221 CT        1 <0>        0.13469
      6 C6         -0.8897   -0.4556   -0.6721 CT        1 <0>       -0.08595
      7 C7          0.2117    0.5779   -1.0629 CT        1 <0>        0.16368
      8 C8         -1.9087   -0.6959   -1.8000 CT        1 <0>       -0.08852
      9 C9         -0.3738    1.9468   -1.4433 CT        1 <0>       -0.12455
     10 O1         -0.8275    0.0934    1.7538 OS        1 <0>       -0.42174
     11 O2          0.8661    0.0956   -2.2505 OH        1 <0>       -0.60661
     12 H1          3.0047   -0.3073    0.7132 HC        1 <0>        0.04440
     13 H2          1.7853   -1.3356   -0.0016 HC        1 <0>        0.04440
     14 H3          1.9765   -1.5887    2.4644 HC        1 <0>        0.04606
     15 H4          1.6486    0.1289    2.6867 HC        1 <0>        0.04606
     16 H5          0.9781    1.4981    0.7760 HC        1 <0>        0.05128
     17 H6          2.1515    1.3238   -0.5051 HC        1 <0>        0.05128
     18 H7         -0.3367   -1.9495    1.6052 H1        1 <0>        0.04062
     19 H8         -0.3232   -1.2328    3.2115 H1        1 <0>        0.04062
     20 H9         -2.2558    0.7774    0.4833 H1        1 <0>        0.04661
     21 H10        -2.3679   -0.9323    0.8629 H1        1 <0>        0.04661
     22 H11        -0.3860   -1.4207   -0.5469 HC        1 <0>        0.06363
     23 H12        -2.4558    0.2217   -1.9880 HC        1 <0>        0.04055
     24 H13        -2.5974   -1.4775   -1.4980 HC        1 <0>        0.04055
     25 H14        -1.3817   -0.9988   -2.6983 HC        1 <0>        0.04055
     26 H15        -1.1534    1.8096   -2.1856 HC        1 <0>        0.04341
     27 H16         0.4132    2.5723   -1.8521 HC        1 <0>        0.04341
     28 H17        -0.7909    2.4168   -0.5584 HC        1 <0>        0.04341
     29 H18         1.4857    0.7901   -2.5073 HO        1 <0>        0.39755
@<TRIPOS>BOND
     1    1    2 1
     2    1    3 1
     3    2    4 1
     4    3    7 1
     5    4   10 1
     6    5    6 1
     7    5   10 1
     8    6    7 1
     9    6    8 1
    10    7    9 1
    11    7   11 1
    12    1   12 1
    13    1   13 1
    14    2   14 1
    15    2   15 1
    16    3   16 1
    17    3   17 1
    18    4   18 1
    19    4   19 1
    20    5   20 1
    21    5   21 1
    22    6   22 1
    23    8   23 1
    24    8   24 1
    25    8   25 1
    26    9   26 1
    27    9   27 1
    28    9   28 1
    29   11   29 1
@<TRIPOS>SUBSTRUCTURE
     1 <0>         1 GROUP 0 A     ****
