@<TRIPOS>MOLECULE
AlkEthOH_r65
   23    23     1     0     0
SMALL
USER_CHARGES

@<TRIPOS>ATOM
      1 C1         -0.1132    1.5201   -1.1774 CT        1 <0>       -0.07726
      2 C2         -0.4665    0.3710   -2.1291 CT        1 <0>       -0.06919
      3 C3          1.1973    1.3499   -0.4020 CT        1 <0>       -0.07009
      4 C4         -0.3304   -1.0558   -1.5962 CT        1 <0>       -0.11341
      5 C5          1.0228    0.8962    1.0528 CT        1 <0>       -0.11910
      6 C6         -1.1592   -1.3630   -0.3507 CT        1 <0>        0.14255
      7 C7          0.4005   -0.4877    1.2371 CT        1 <0>        0.32804
      8 O1         -0.9280   -0.4670    0.7282 OS        1 <0>       -0.44761
      9 O2          0.3767   -0.7637    2.6373 OH        1 <0>       -0.60131
     10 H1         -0.0277    2.4250   -1.7940 HC        1 <0>        0.04734
     11 H2         -0.9472    1.7193   -0.4947 HC        1 <0>        0.04734
     12 H3         -1.4922    0.5236   -2.4875 HC        1 <0>        0.03739
     13 H4          0.1764    0.4540   -3.0152 HC        1 <0>        0.03739
     14 H5          1.8883    0.6835   -0.9302 HC        1 <0>        0.03967
     15 H6          1.6932    2.3291   -0.3691 HC        1 <0>        0.03967
     16 H7         -0.6324   -1.7520   -2.3886 HC        1 <0>        0.04419
     17 H8          0.7276   -1.2668   -1.4081 HC        1 <0>        0.04419
     18 H9          2.0025    0.9141    1.5476 HC        1 <0>        0.05496
     19 H10         0.4110    1.6395    1.5815 HC        1 <0>        0.05496
     20 H11        -2.2235   -1.2937   -0.6004 H1        1 <0>        0.04810
     21 H12        -0.9756   -2.3897   -0.0133 H1        1 <0>        0.04810
     22 H13         1.0277   -1.2528    0.7658 H2        1 <0>        0.07555
     23 H14         1.2980   -0.7391    2.9372 HO        1 <0>        0.40853
@<TRIPOS>BOND
     1    1    2 1
     2    1    3 1
     3    2    4 1
     4    3    5 1
     5    4    6 1
     6    5    7 1
     7    6    8 1
     8    7    8 1
     9    7    9 1
    10    1   10 1
    11    1   11 1
    12    2   12 1
    13    2   13 1
    14    3   14 1
    15    3   15 1
    16    4   16 1
    17    4   17 1
    18    5   18 1
    19    5   19 1
    20    6   20 1
    21    6   21 1
    22    7   22 1
    23    9   23 1
@<TRIPOS>SUBSTRUCTURE
     1 <0>         1 GROUP 0 A     ****
