@<TRIPOS>MOLECULE
AlkEthOH_c701
   20    19     1     0     0
SMALL
USER_CHARGES

@<TRIPOS>ATOM
      1 C1          0.2010   -1.7648    1.1795 CT        1 <0>       -0.13165
      2 C2         -1.9125    1.9212    0.1579 CT        1 <0>        0.11928
      3 C3          0.8629   -0.2793   -0.7926 CT        1 <0>       -0.10539
      4 C4          0.2071   -1.5862   -0.3326 CT        1 <0>        0.14574
      5 C5          0.2321    0.9924   -0.2221 CT        1 <0>        0.33295
      6 O1          0.9205   -2.6786   -0.9137 OH        1 <0>       -0.60446
      7 O2          0.9923    2.0953   -0.7122 OH        1 <0>       -0.62192
      8 O3         -1.1293    1.0511   -0.6474 OS        1 <0>       -0.41048
      9 H1          1.2172   -1.7102    1.5854 HC        1 <0>        0.04226
     10 H2         -0.1902   -2.7534    1.4442 HC        1 <0>        0.04226
     11 H3         -0.4157   -1.0095    1.6747 HC        1 <0>        0.04226
     12 H4         -2.9420    1.9299   -0.2084 H1        1 <0>        0.03859
     13 H5         -1.4928    2.9297    0.1210 H1        1 <0>        0.03859
     14 H6         -1.8982    1.5603    1.1891 H1        1 <0>        0.03859
     15 H7          0.8189   -0.2424   -1.8902 HC        1 <0>        0.07024
     16 H8          1.9366   -0.2941   -0.5619 HC        1 <0>        0.07024
     17 H9         -0.8198   -1.6455   -0.7083 H1        1 <0>        0.05132
     18 H10         0.2954    0.9811    0.8724 H2        1 <0>        0.03004
     19 H11         0.4473   -3.4831   -0.6537 HO        1 <0>        0.40060
     20 H12         1.9055    1.9768   -0.4005 HO        1 <0>        0.41094
@<TRIPOS>BOND
     1    1    4 1
     2    2    8 1
     3    3    4 1
     4    3    5 1
     5    4    6 1
     6    5    7 1
     7    5    8 1
     8    1    9 1
     9    1   10 1
    10    1   11 1
    11    2   12 1
    12    2   13 1
    13    2   14 1
    14    3   15 1
    15    3   16 1
    16    4   17 1
    17    5   18 1
    18    6   19 1
    19    7   20 1
@<TRIPOS>SUBSTRUCTURE
     1 <0>         1 GROUP 0 A     ****
