@<TRIPOS>MOLECULE
AlkEthOH_r1005
   26    26     1     0     0
SMALL
USER_CHARGES

@<TRIPOS>ATOM
      1 C1          0.6022    1.8145   -0.6987 CT        1 <0>       -0.10844
      2 C2          0.4602   -0.7216   -0.7542 CT        1 <0>       -0.10064
      3 C3          0.1856    2.0495    0.7487 CT        1 <0>        0.12708
      4 C4         -0.6489   -0.0487    1.4850 CT        1 <0>        0.13868
      5 C5         -0.0417    0.5920   -1.3780 CT        1 <0>       -0.05429
      6 C6         -0.2886   -1.1760    0.5122 CT        1 <0>        0.12572
      7 C7          0.3066    0.6148   -2.8715 CT        1 <0>       -0.09172
      8 C8         -1.5552   -1.9648    0.1576 CT        1 <0>       -0.12239
      9 O1          0.3971    0.9156    1.5833 OS        1 <0>       -0.39903
     10 O2          0.5826   -2.0753    1.2155 OH        1 <0>       -0.59205
     11 H1          0.3662    2.7218   -1.2694 HC        1 <0>        0.04844
     12 H2          1.6940    1.7021   -0.7324 HC        1 <0>        0.04844
     13 H3          0.4043   -1.5339   -1.4923 HC        1 <0>        0.05180
     14 H4          1.5340   -0.6337   -0.5352 HC        1 <0>        0.05180
     15 H5          0.7994    2.8609    1.1561 H1        1 <0>        0.04419
     16 H6         -0.8545    2.3915    0.8108 H1        1 <0>        0.04419
     17 H7         -1.5965    0.4321    1.2128 H1        1 <0>        0.05718
     18 H8         -0.7842   -0.4576    2.4932 H1        1 <0>        0.05718
     19 H9         -1.1332    0.6597   -1.2952 HC        1 <0>        0.04537
     20 H10         1.3843    0.5492   -2.9934 HC        1 <0>        0.03520
     21 H11        -0.0518    1.5405   -3.3132 HC        1 <0>        0.03520
     22 H12        -0.1656   -0.2293   -3.3667 HC        1 <0>        0.03520
     23 H13        -2.0593   -2.2703    1.0704 HC        1 <0>        0.04263
     24 H14        -1.2844   -2.8454   -0.4182 HC        1 <0>        0.04263
     25 H15        -2.2198   -1.3378   -0.4305 HC        1 <0>        0.04263
     26 H16         0.7541   -2.8075    0.6081 HO        1 <0>        0.39500
@<TRIPOS>BOND
     1    1    3 1
     2    1    5 1
     3    2    5 1
     4    2    6 1
     5    3    9 1
     6    4    6 1
     7    4    9 1
     8    5    7 1
     9    6    8 1
    10    6   10 1
    11    1   11 1
    12    1   12 1
    13    2   13 1
    14    2   14 1
    15    3   15 1
    16    3   16 1
    17    4   17 1
    18    4   18 1
    19    5   19 1
    20    7   20 1
    21    7   21 1
    22    7   22 1
    23    8   23 1
    24    8   24 1
    25    8   25 1
    26   10   26 1
@<TRIPOS>SUBSTRUCTURE
     1 <0>         1 GROUP 0 A     ****
