@<TRIPOS>MOLECULE
AlkEthOH_r1122
   27    27     1     0     0
SMALL
USER_CHARGES

@<TRIPOS>ATOM
      1 C1         -0.6322   -0.6305   -2.0197 CT        1 <0>       -0.06709
      2 C2          0.5534    0.3376   -2.0772 CT        1 <0>       -0.11489
      3 C3         -0.9867   -1.2215   -0.6538 CT        1 <0>       -0.12786
      4 C4          1.8064   -0.1508   -1.3512 CT        1 <0>        0.13657
      5 C5          1.1002    0.1731    0.9250 CT        1 <0>        0.33931
      6 C6         -1.2498   -0.2237    0.4906 CT        1 <0>        0.35237
      7 C7          1.6278    0.8072    2.2052 CT        1 <0>       -0.09138
      8 C8         -2.4989    0.6119    0.2012 CT        1 <0>       -0.11405
      9 O1          2.0162    0.5258   -0.1134 OS        1 <0>       -0.43008
     10 O2         -0.1974    0.7184    0.7009 OS        1 <0>       -0.42454
     11 O3         -1.5389   -0.9476    1.6924 OH        1 <0>       -0.63021
     12 H1         -1.5116   -0.1296   -2.4418 HC        1 <0>        0.03816
     13 H2         -0.4197   -1.4696   -2.6954 HC        1 <0>        0.03816
     14 H3          0.7983    0.4697   -3.1391 HC        1 <0>        0.06069
     15 H4          0.2500    1.3252   -1.7115 HC        1 <0>        0.06069
     16 H5         -1.8727   -1.8607   -0.7743 HC        1 <0>        0.04953
     17 H6         -0.1990   -1.9251   -0.3585 HC        1 <0>        0.04953
     18 H7          1.8298   -1.2361   -1.2062 H1        1 <0>        0.04404
     19 H8          2.6765    0.0975   -1.9694 H1        1 <0>        0.04404
     20 H9          1.0927   -0.9141    1.0655 H2        1 <0>        0.05264
     21 H10         1.6497    1.8923    2.1026 HC        1 <0>        0.05423
     22 H11         2.6377    0.4511    2.4093 HC        1 <0>        0.05423
     23 H12         0.9838    0.5444    3.0447 HC        1 <0>        0.05423
     24 H13        -2.6683    1.3089    1.0181 HC        1 <0>        0.05372
     25 H14        -3.3606   -0.0435    0.1021 HC        1 <0>        0.05372
     26 H15        -2.3597    1.1669   -0.7233 HC        1 <0>        0.05372
     27 H16        -2.3252   -1.4783    1.5029 HO        1 <0>        0.41052
@<TRIPOS>BOND
     1    1    2 1
     2    1    3 1
     3    2    4 1
     4    3    6 1
     5    4    9 1
     6    5    7 1
     7    5    9 1
     8    5   10 1
     9    6    8 1
    10    6   10 1
    11    6   11 1
    12    1   12 1
    13    1   13 1
    14    2   14 1
    15    2   15 1
    16    3   16 1
    17    3   17 1
    18    4   18 1
    19    4   19 1
    20    5   20 1
    21    7   21 1
    22    7   22 1
    23    7   23 1
    24    8   24 1
    25    8   25 1
    26    8   26 1
    27   11   27 1
@<TRIPOS>SUBSTRUCTURE
     1 <0>         1 GROUP 0 A     ****
