@<TRIPOS>MOLECULE
AlkEthOH_r310
   30    30     1     0     0
SMALL
USER_CHARGES

@<TRIPOS>ATOM
      1 C1         -0.5430   -0.4948   -0.8141 CT        1 <0>       -0.07352
      2 C2         -0.6075   -1.9928   -0.5299 CT        1 <0>       -0.06704
      3 C3         -1.9392    0.1118   -0.9207 CT        1 <0>       -0.06704
      4 C4         -2.8041   -2.1096   -1.8050 CT        1 <0>       -0.05646
      5 C5         -1.4253   -2.7819   -1.5732 CT        1 <0>       -0.04815
      6 C6         -2.8255   -0.5688   -1.9844 CT        1 <0>       -0.04815
      7 C7         -0.6286   -2.9407   -2.8812 CT        1 <0>       -0.08751
      8 C8         -1.6715   -4.2074   -1.0275 CT        1 <0>       -0.08751
      9 C9         -2.3987   -0.1424   -3.4011 CT        1 <0>       -0.08751
     10 C10        -4.2809   -0.0829   -1.7942 CT        1 <0>       -0.08751
     11 H1          0.0001    0.0002   -0.0001 HC        1 <0>        0.03963
     12 H2          0.0312   -0.3007   -1.7258 HC        1 <0>        0.03963
     13 H3          0.4124   -2.3925   -0.4652 HC        1 <0>        0.03818
     14 H4         -1.0535   -2.1313    0.4644 HC        1 <0>        0.03818
     15 H5         -2.4213    0.0305    0.0629 HC        1 <0>        0.03818
     16 H6         -1.8516    1.1854   -1.1299 HC        1 <0>        0.03818
     17 H7         -3.3120   -2.5885   -2.6533 HC        1 <0>        0.03929
     18 H8         -3.4279   -2.3413   -0.9288 HC        1 <0>        0.03929
     19 H9         -1.2244   -3.4976   -3.5963 HC        1 <0>        0.03332
     20 H10         0.2917   -3.4763   -2.6753 HC        1 <0>        0.03332
     21 H11        -0.3997   -1.9587   -3.2808 HC        1 <0>        0.03332
     22 H12        -2.2454   -4.7668   -1.7553 HC        1 <0>        0.03332
     23 H13        -2.2205   -4.1364   -0.0972 HC        1 <0>        0.03332
     24 H14        -0.7162   -4.6879   -0.8592 HC        1 <0>        0.03332
     25 H15        -3.0359   -0.6336   -4.1285 HC        1 <0>        0.03332
     26 H16        -1.3661   -0.4312   -3.5645 HC        1 <0>        0.03332
     27 H17        -2.4977    0.9336   -3.4947 HC        1 <0>        0.03332
     28 H18        -4.9085   -0.5570   -2.5380 HC        1 <0>        0.03332
     29 H19        -4.3098    0.9925   -1.9151 HC        1 <0>        0.03332
     30 H20        -4.6136   -0.3540   -0.8004 HC        1 <0>        0.03332
@<TRIPOS>BOND
     1    1    2 1
     2    1    3 1
     3    2    5 1
     4    3    6 1
     5    4    5 1
     6    4    6 1
     7    5    7 1
     8    5    8 1
     9    6    9 1
    10    6   10 1
    11    1   11 1
    12    1   12 1
    13    2   13 1
    14    2   14 1
    15    3   15 1
    16    3   16 1
    17    4   17 1
    18    4   18 1
    19    7   19 1
    20    7   20 1
    21    7   21 1
    22    8   22 1
    23    8   23 1
    24    8   24 1
    25    9   25 1
    26    9   26 1
    27    9   27 1
    28   10   28 1
    29   10   29 1
    30   10   30 1
@<TRIPOS>SUBSTRUCTURE
     1 <0>         1 GROUP 0 A     ****
