@<TRIPOS>MOLECULE
AlkEthOH_c1086
   21    20     1     0     0
SMALL
USER_CHARGES

@<TRIPOS>ATOM
      1 C1          0.9017   -0.5897    0.4461 CT        1 <0>       -0.09128
      2 C2          0.8194    2.5697    4.3510 CT        1 <0>       -0.08873
      3 C3          1.7436    0.3762    1.2663 CT        1 <0>       -0.07983
      4 C4          0.9469    0.9535    2.4385 CT        1 <0>       -0.07384
      5 C5          3.0253    1.4587    3.8675 CT        1 <0>        0.13282
      6 C6          1.7287    2.0037    3.2539 CT        1 <0>       -0.06051
      7 O1          2.7471    0.4221    4.7981 OH        1 <0>       -0.59867
      8 H1          0.0042   -0.0965    0.0595 HC        1 <0>        0.03265
      9 H2          1.4704   -0.9838   -0.4022 HC        1 <0>        0.03265
     10 H3          0.5853   -1.4356    1.0645 HC        1 <0>        0.03265
     11 H4          0.5101    1.7933    5.0587 HC        1 <0>        0.03785
     12 H5         -0.0851    3.0086    3.9162 HC        1 <0>        0.03785
     13 H6          1.3324    3.3573    4.9131 HC        1 <0>        0.03785
     14 H7          2.6276   -0.1570    1.6318 HC        1 <0>        0.03598
     15 H8          2.0939    1.1873    0.6177 HC        1 <0>        0.03598
     16 H9          0.6167    0.1364    3.0922 HC        1 <0>        0.04755
     17 H10         0.0355    1.4231    2.0455 HC        1 <0>        0.04755
     18 H11         3.5639    2.2560    4.3914 H1        1 <0>        0.02010
     19 H12         3.6897    1.0624    3.0936 H1        1 <0>        0.02010
     20 H13         1.9970    2.8327    2.5863 HC        1 <0>        0.04421
     21 H14         3.6018    0.1221    5.1481 HO        1 <0>        0.39707
@<TRIPOS>BOND
     1    1    3 1
     2    2    6 1
     3    3    4 1
     4    4    6 1
     5    5    6 1
     6    5    7 1
     7    1    8 1
     8    1    9 1
     9    1   10 1
    10    2   11 1
    11    2   12 1
    12    2   13 1
    13    3   14 1
    14    3   15 1
    15    4   16 1
    16    4   17 1
    17    5   18 1
    18    5   19 1
    19    6   20 1
    20    7   21 1
@<TRIPOS>SUBSTRUCTURE
     1 <0>         1 GROUP 0 A     ****
