@<TRIPOS>MOLECULE
AlkEthOH_r260
   15    15     1     0     0
SMALL
USER_CHARGES

@<TRIPOS>ATOM
      1 C1         -0.8826   -0.6348   -0.4541 CT        1 <0>       -0.10190
      2 C2         -0.0248   -1.0849    0.7271 CT        1 <0>        0.31638
      3 C3          0.1527    0.4878   -0.6165 CT        1 <0>        0.32500
      4 C4         -0.3834    1.8969   -0.4269 CT        1 <0>       -0.11837
      5 O1          0.8584    0.0523    0.5739 OS        1 <0>       -0.48641
      6 O2         -0.6832   -1.1426    2.0031 OH        1 <0>       -0.59921
      7 O3          0.9499    0.4180   -1.8148 OH        1 <0>       -0.58943
      8 H1         -0.9293   -1.3519   -1.2787 HC        1 <0>        0.08324
      9 H2         -1.8961   -0.3123   -0.1988 HC        1 <0>        0.08324
     10 H3          0.5221   -2.0158    0.5375 H2        1 <0>        0.07321
     11 H4          0.4178    2.6261   -0.5600 HC        1 <0>        0.05747
     12 H5         -0.7976    2.0107    0.5765 HC        1 <0>        0.05747
     13 H6         -1.1692    2.1025   -1.1560 HC        1 <0>        0.05747
     14 H7         -0.0134   -1.4400    2.6330 HO        1 <0>        0.42086
     15 H8          1.5446    1.1775   -1.7766 HO        1 <0>        0.42098
@<TRIPOS>BOND
     1    1    2 1
     2    1    3 1
     3    2    5 1
     4    2    6 1
     5    3    4 1
     6    3    5 1
     7    3    7 1
     8    1    8 1
     9    1    9 1
    10    2   10 1
    11    4   11 1
    12    4   12 1
    13    4   13 1
    14    6   14 1
    15    7   15 1
@<TRIPOS>SUBSTRUCTURE
     1 <0>         1 GROUP 0 A     ****
