@<TRIPOS>MOLECULE
AlkEthOH_r491
   25    25     1     0     0
SMALL
USER_CHARGES

@<TRIPOS>ATOM
      1 C1          0.9316    0.5569   -1.5483 CT        1 <0>       -0.10413
      2 C2          0.7016    1.2966   -0.2303 CT        1 <0>       -0.06623
      3 C3         -0.0140   -0.6678    1.2339 CT        1 <0>       -0.10220
      4 C4          1.2120   -0.9297   -1.3912 CT        1 <0>        0.13135
      5 C5         -0.2287   -1.8486    0.2863 CT        1 <0>        0.13483
      6 C6         -0.3891    0.7434    0.7223 CT        1 <0>       -0.04135
      7 C7         -1.7802    0.7700    0.0675 CT        1 <0>       -0.09035
      8 C8         -0.4346    1.6840    1.9510 CT        1 <0>       -0.09035
      9 O1          0.0013   -1.6047   -1.0911 OS        1 <0>       -0.42019
     10 H1          0.0595    0.7011   -2.1970 HC        1 <0>        0.04942
     11 H2          1.7848    1.0249   -2.0542 HC        1 <0>        0.04942
     12 H3          1.6594    1.3293    0.3076 HC        1 <0>        0.03685
     13 H4          0.4666    2.3413   -0.4760 HC        1 <0>        0.03685
     14 H5         -0.5667   -0.8916    2.1565 HC        1 <0>        0.04277
     15 H6          1.0428   -0.6569    1.5350 HC        1 <0>        0.04277
     16 H7          1.5569   -1.3203   -2.3547 H1        1 <0>        0.04347
     17 H8          1.9985   -1.1410   -0.6577 H1        1 <0>        0.04347
     18 H9          0.3961   -2.6928    0.6014 H1        1 <0>        0.04098
     19 H10        -1.2669   -2.1889    0.3708 H1        1 <0>        0.04098
     20 H11        -2.5125    0.3759    0.7649 HC        1 <0>        0.03694
     21 H12        -1.7660    0.1598   -0.8299 HC        1 <0>        0.03694
     22 H13        -2.0357    1.7927   -0.1905 HC        1 <0>        0.03694
     23 H14        -1.1890    1.3238    2.6376 HC        1 <0>        0.03694
     24 H15        -0.6817    2.6826    1.6161 HC        1 <0>        0.03694
     25 H16         0.5363    1.6804    2.4284 HC        1 <0>        0.03694
@<TRIPOS>BOND
     1    1    2 1
     2    1    4 1
     3    2    6 1
     4    3    5 1
     5    3    6 1
     6    4    9 1
     7    5    9 1
     8    6    7 1
     9    6    8 1
    10    1   10 1
    11    1   11 1
    12    2   12 1
    13    2   13 1
    14    3   14 1
    15    3   15 1
    16    4   16 1
    17    4   17 1
    18    5   18 1
    19    5   19 1
    20    7   20 1
    21    7   21 1
    22    7   22 1
    23    8   23 1
    24    8   24 1
    25    8   25 1
@<TRIPOS>SUBSTRUCTURE
     1 <0>         1 GROUP 0 A     ****
