@<TRIPOS>MOLECULE
AlkEthOH_r819
   27    27     1     0     0
SMALL
USER_CHARGES

@<TRIPOS>ATOM
      1 C1         -2.0826   -0.8829   -0.9764 CT        1 <0>       -0.10178
      2 C2         -1.6475   -1.4805    0.3707 CT        1 <0>       -0.11059
      3 C3          1.4045    0.9910    0.4646 CT        1 <0>       -0.13069
      4 C4         -1.7921    0.6109   -1.1387 CT        1 <0>        0.13594
      5 C5         -0.2741   -2.1608    0.3385 CT        1 <0>        0.14282
      6 C6          0.0709    1.5957    0.0038 CT        1 <0>        0.15127
      7 C7          1.2207   -0.4281    1.0167 CT        1 <0>        0.32980
      8 C8          0.2427    3.0494   -0.4184 CT        1 <0>       -0.11139
      9 O1         -0.3913    0.8541   -1.1281 OS        1 <0>       -0.41667
     10 O2          0.7685   -1.2718   -0.0404 OS        1 <0>       -0.44099
     11 O3          2.4803   -0.8770    1.5076 OH        1 <0>       -0.61259
     12 H1         -1.6145   -1.4411   -1.7960 HC        1 <0>        0.05461
     13 H2         -3.1666   -1.0180   -1.0768 HC        1 <0>        0.05461
     14 H3         -1.6818   -0.7099    1.1480 HC        1 <0>        0.04111
     15 H4         -2.3796   -2.2459    0.6572 HC        1 <0>        0.04111
     16 H5          2.1036    0.9526   -0.3814 HC        1 <0>        0.07052
     17 H6          1.8654    1.6224    1.2340 HC        1 <0>        0.07052
     18 H7         -2.1638    0.9327   -2.1178 H1        1 <0>        0.04016
     19 H8         -2.3291    1.2007   -0.3866 H1        1 <0>        0.04016
     20 H9         -0.0454   -2.6232    1.3062 H1        1 <0>        0.04987
     21 H10        -0.2919   -2.9681   -0.4020 H1        1 <0>        0.04987
     22 H11        -0.6408    1.5422    0.8370 H1        1 <0>        0.03670
     23 H12         0.5168   -0.3994    1.8577 H2        1 <0>        0.07323
     24 H13         0.9483    3.1163   -1.2466 HC        1 <0>        0.04368
     25 H14         0.6215    3.6381    0.4172 HC        1 <0>        0.04368
     26 H15        -0.7154    3.4612   -0.7359 HC        1 <0>        0.04368
     27 H16         2.7436   -0.2553    2.2039 HO        1 <0>        0.41136
@<TRIPOS>BOND
     1    1    2 1
     2    1    4 1
     3    2    5 1
     4    3    6 1
     5    3    7 1
     6    4    9 1
     7    5   10 1
     8    6    8 1
     9    6    9 1
    10    7   10 1
    11    7   11 1
    12    1   12 1
    13    1   13 1
    14    2   14 1
    15    2   15 1
    16    3   16 1
    17    3   17 1
    18    4   18 1
    19    4   19 1
    20    5   20 1
    21    5   21 1
    22    6   22 1
    23    7   23 1
    24    8   24 1
    25    8   25 1
    26    8   26 1
    27   11   27 1
@<TRIPOS>SUBSTRUCTURE
     1 <0>         1 GROUP 0 A     ****
