@<TRIPOS>MOLECULE
AlkEthOH_r470
   22    22     1     0     0
SMALL
USER_CHARGES

@<TRIPOS>ATOM
      1 C1         -0.9910   -1.4908   -1.0736 CT        1 <0>       -0.09607
      2 C2         -0.2317   -1.6212    0.2479 CT        1 <0>       -0.07904
      3 C3         -0.8043   -0.1938   -1.8464 CT        1 <0>        0.14416
      4 C4          0.5798    1.2110   -0.5258 CT        1 <0>        0.53023
      5 C5         -0.2052   -0.3719    1.1416 CT        1 <0>        0.36150
      6 C6          0.1994   -0.7859    2.5619 CT        1 <0>       -0.11598
      7 O1          0.4912    0.3589   -1.6684 OS        1 <0>       -0.46735
      8 O2          0.8166    0.5301    0.7032 OS        1 <0>       -0.51177
      9 O3          1.6458    2.1434   -0.7384 OH        1 <0>       -0.57902
     10 O4         -1.5007    0.2201    1.1981 OH        1 <0>       -0.62458
     11 H1         -0.6978   -2.3398   -1.7245 HC        1 <0>        0.04949
     12 H2         -2.0728   -1.6365   -0.8709 HC        1 <0>        0.04949
     13 H3         -0.6879   -2.4572    0.8005 HC        1 <0>        0.06042
     14 H4          0.8024   -1.9203    0.0144 HC        1 <0>        0.06042
     15 H5         -1.0511   -0.3122   -2.9232 H1        1 <0>        0.05215
     16 H6         -1.5224    0.5536   -1.4574 H1        1 <0>        0.05215
     17 H7         -0.3282    1.7492   -0.4524 H3        1 <0>        0.09981
     18 H8          0.2217    0.0908    3.2043 HC        1 <0>        0.05522
     19 H9          1.1856   -1.2427    2.5409 HC        1 <0>        0.05522
     20 H10        -0.5210   -1.5006    2.9519 HC        1 <0>        0.05522
     21 H11         2.4501    1.6157   -0.8512 HO        1 <0>        0.43323
     22 H12        -1.4231    0.9979    1.7716 HO        1 <0>        0.41510
@<TRIPOS>BOND
     1    1    2 1
     2    1    3 1
     3    2    5 1
     4    3    7 1
     5    4    7 1
     6    4    8 1
     7    4    9 1
     8    5    6 1
     9    5    8 1
    10    5   10 1
    11    1   11 1
    12    1   12 1
    13    2   13 1
    14    2   14 1
    15    3   15 1
    16    3   16 1
    17    4   17 1
    18    6   18 1
    19    6   19 1
    20    6   20 1
    21    9   21 1
    22   10   22 1
@<TRIPOS>SUBSTRUCTURE
     1 <0>         1 GROUP 0 A     ****
