@<TRIPOS>MOLECULE
AlkEthOH_c664
   31    30     1     0     0
SMALL
USER_CHARGES

@<TRIPOS>ATOM
      1 C1          0.1470    0.2935   -1.7543 CT        1 <0>       -0.08785
      2 C2          3.0261    2.8432    0.5607 CT        1 <0>       -0.13206
      3 C3         -2.6569   -1.0431    0.4825 CT        1 <0>       -0.12478
      4 C4         -1.4088   -3.1941    0.7944 CT        1 <0>       -0.12478
      5 C5          1.4031    0.9276    0.3648 CT        1 <0>       -0.07128
      6 C6         -0.0972   -1.0913    0.3909 CT        1 <0>       -0.06218
      7 C7          0.1042    0.3196   -0.2251 CT        1 <0>       -0.05305
      8 C8          1.7236    2.3648   -0.0694 CT        1 <0>        0.13938
      9 C9         -1.4142   -1.8374    0.0770 CT        1 <0>        0.15314
     10 O1          0.6922    3.2532    0.3467 OH        1 <0>       -0.59955
     11 O2         -1.4749   -2.1063   -1.3241 OH        1 <0>       -0.59523
     12 H1          0.9694   -0.3251   -2.1239 HC        1 <0>        0.03766
     13 H2         -0.7868   -0.0991   -2.1699 HC        1 <0>        0.03766
     14 H3          0.3154    1.2915   -2.1671 HC        1 <0>        0.03766
     15 H4          2.9652    2.7848    1.6531 HC        1 <0>        0.04141
     16 H5          3.8662    2.2076    0.2597 HC        1 <0>        0.04141
     17 H6          3.2483    3.8770    0.2791 HC        1 <0>        0.04141
     18 H7         -2.6898   -0.0678   -0.0139 HC        1 <0>        0.04184
     19 H8         -3.5702   -1.5653    0.1734 HC        1 <0>        0.04184
     20 H9         -2.7002   -0.8901    1.5657 HC        1 <0>        0.04184
     21 H10        -0.5303   -3.7899    0.5259 HC        1 <0>        0.04184
     22 H11        -2.3086   -3.7690    0.5464 HC        1 <0>        0.04184
     23 H12        -1.4171   -3.0631    1.8827 HC        1 <0>        0.04184
     24 H13         1.3078    0.9169    1.4592 HC        1 <0>        0.04485
     25 H14         2.2530    0.2798    0.1139 HC        1 <0>        0.04485
     26 H15         0.7443   -1.7227    0.0725 HC        1 <0>        0.04543
     27 H16        -0.0170   -0.9901    1.4820 HC        1 <0>        0.04543
     28 H17        -0.7354    0.9514    0.0861 HC        1 <0>        0.06383
     29 H18         1.8228    2.4377   -1.1569 H1        1 <0>        0.03447
     30 H19         0.9412    4.1359    0.0300 HO        1 <0>        0.39613
     31 H20        -2.2834   -2.6204   -1.4691 HO        1 <0>        0.39500
@<TRIPOS>BOND
     1    1    7 1
     2    2    8 1
     3    3    9 1
     4    4    9 1
     5    5    7 1
     6    5    8 1
     7    6    7 1
     8    6    9 1
     9    8   10 1
    10    9   11 1
    11    1   12 1
    12    1   13 1
    13    1   14 1
    14    2   15 1
    15    2   16 1
    16    2   17 1
    17    3   18 1
    18    3   19 1
    19    3   20 1
    20    4   21 1
    21    4   22 1
    22    4   23 1
    23    5   24 1
    24    5   25 1
    25    6   26 1
    26    6   27 1
    27    7   28 1
    28    8   29 1
    29   10   30 1
    30   11   31 1
@<TRIPOS>SUBSTRUCTURE
     1 <0>         1 GROUP 0 A     ****
