@<TRIPOS>MOLECULE
AlkEthOH_r716
   24    24     1     0     0
SMALL
USER_CHARGES

@<TRIPOS>ATOM
      1 C1         -1.9872   -0.3933   -1.0954 CT        1 <0>       -0.12186
      2 C2         -1.1014   -1.6370   -1.0811 CT        1 <0>        0.14026
      3 C3         -1.6575    0.5954    0.0205 CT        1 <0>        0.14357
      4 C4          1.0967   -1.4232   -0.1941 CT        1 <0>        0.33275
      5 C5          0.6562    0.7888    0.7121 CT        1 <0>        0.35120
      6 C6          1.9710    1.3590    0.1643 CT        1 <0>       -0.11081
      7 C7          0.3965    1.4371    2.0798 CT        1 <0>       -0.11081
      8 O1          0.2541   -1.2787   -1.3345 OS        1 <0>       -0.43734
      9 O2         -0.3756    1.1767   -0.2063 OS        1 <0>       -0.43829
     10 O3          0.7471   -0.6249    0.9346 OS        1 <0>       -0.47825
     11 H1         -1.8594    0.1137   -2.0596 HC        1 <0>        0.05682
     12 H2         -3.0352   -0.7000   -1.0078 HC        1 <0>        0.05682
     13 H3         -1.2146   -2.1931   -0.1426 H1        1 <0>        0.04269
     14 H4         -1.4144   -2.3022   -1.8930 H1        1 <0>        0.04269
     15 H5         -2.3859    1.4127   -0.0067 H1        1 <0>        0.04460
     16 H6         -1.7423    0.1128    0.9995 H1        1 <0>        0.04460
     17 H7          1.0865   -2.4721    0.1239 H2        1 <0>        0.06111
     18 H8          2.1264   -1.2076   -0.4956 H2        1 <0>        0.06111
     19 H9          2.1811    0.9170   -0.8057 HC        1 <0>        0.05319
     20 H10         2.7803    1.1268    0.8509 HC        1 <0>        0.05319
     21 H11         1.8826    2.4368    0.0597 HC        1 <0>        0.05319
     22 H12        -0.5309    1.0505    2.4920 HC        1 <0>        0.05319
     23 H13         0.3197    2.5137    1.9599 HC        1 <0>        0.05319
     24 H14         1.2175    1.2039    2.7513 HC        1 <0>        0.05319
@<TRIPOS>BOND
     1    1    2 1
     2    1    3 1
     3    2    8 1
     4    3    9 1
     5    4    8 1
     6    4   10 1
     7    5    6 1
     8    5    7 1
     9    5    9 1
    10    5   10 1
    11    1   11 1
    12    1   12 1
    13    2   13 1
    14    2   14 1
    15    3   15 1
    16    3   16 1
    17    4   17 1
    18    4   18 1
    19    6   19 1
    20    6   20 1
    21    6   21 1
    22    7   22 1
    23    7   23 1
    24    7   24 1
@<TRIPOS>SUBSTRUCTURE
     1 <0>         1 GROUP 0 A     ****
