@<TRIPOS>MOLECULE
AlkEthOH_r25
   22    22     1     0     0
SMALL
USER_CHARGES

@<TRIPOS>ATOM
      1 C1         -1.2630   -0.1901    1.8331 CT        1 <0>       -0.08944
      2 C2          0.2111   -0.5625    1.6698 CT        1 <0>       -0.14088
      3 C3         -2.0100    0.1529    0.5472 CT        1 <0>        0.12417
      4 C4         -0.9920   -0.2706   -1.5731 CT        1 <0>        0.08934
      5 C5          1.0877    0.5091    1.0106 CT        1 <0>        0.34927
      6 C6          0.4903   -0.0931   -1.2481 CT        1 <0>        0.31175
      7 O1         -1.7331   -0.8007   -0.4753 OS        1 <0>       -0.41588
      8 O2          0.6305    0.9346   -0.2710 OS        1 <0>       -0.45340
      9 O3          2.4293    0.0261    0.9590 OH        1 <0>       -0.61546
     10 O4          1.1492    0.2943   -2.4521 OH        1 <0>       -0.59384
     11 H1         -1.7610   -1.0514    2.2969 HC        1 <0>        0.04866
     12 H2         -1.3631    0.6425    2.5393 HC        1 <0>        0.04866
     13 H3          0.6274   -0.7887    2.6605 HC        1 <0>        0.05920
     14 H4          0.2849   -1.5086    1.1202 HC        1 <0>        0.05920
     15 H5         -3.0868    0.1113    0.7464 H1        1 <0>        0.05110
     16 H6         -1.7987    1.1801    0.2282 H1        1 <0>        0.05110
     17 H7         -1.4456    0.6684   -1.9148 H1        1 <0>        0.06157
     18 H8         -1.0943   -0.9791   -2.4031 H1        1 <0>        0.06157
     19 H9          1.0862    1.3956    1.6549 H2        1 <0>        0.06968
     20 H10         0.9255   -1.0431   -0.9194 H2        1 <0>        0.09541
     21 H11         2.6982   -0.1362    1.8760 HO        1 <0>        0.41083
     22 H12         0.7397    1.1264   -2.7345 HO        1 <0>        0.41739
@<TRIPOS>BOND
     1    1    2 1
     2    1    3 1
     3    2    5 1
     4    3    7 1
     5    4    6 1
     6    4    7 1
     7    5    8 1
     8    5    9 1
     9    6    8 1
    10    6   10 1
    11    1   11 1
    12    1   12 1
    13    2   13 1
    14    2   14 1
    15    3   15 1
    16    3   16 1
    17    4   17 1
    18    4   18 1
    19    5   19 1
    20    6   20 1
    21    9   21 1
    22   10   22 1
@<TRIPOS>SUBSTRUCTURE
     1 <0>         1 GROUP 0 A     ****
