@<TRIPOS>MOLECULE
AlkEthOH_r365
   32    32     1     0     0
SMALL
USER_CHARGES

@<TRIPOS>ATOM
      1 C1         -2.4019    0.6345    0.5038 CT        1 <0>       -0.07533
      2 C2         -1.9292   -0.6933    1.0959 CT        1 <0>       -0.07558
      3 C3         -1.4208    1.8010    0.6722 CT        1 <0>       -0.07267
      4 C4         -1.4843   -1.7499    0.0854 CT        1 <0>       -0.07095
      5 C5         -0.3580    1.9291   -0.4251 CT        1 <0>       -0.06564
      6 C6         -0.4747   -1.3544   -0.9964 CT        1 <0>       -0.05926
      7 C7          1.2500    0.0311    0.4222 CT        1 <0>       -0.13392
      8 C8          1.0549    1.4754   -0.0504 CT        1 <0>        0.15182
      9 C9          0.9860   -1.1213   -0.5659 CT        1 <0>        0.16421
     10 C10         1.8547   -0.9633   -1.8243 CT        1 <0>       -0.12906
     11 O1          1.5095    2.3429    0.9988 OH        1 <0>       -0.60341
     12 O2          1.4138   -2.3317    0.0839 OH        1 <0>       -0.60074
     13 H1         -2.7166    0.5263   -0.5401 HC        1 <0>        0.03697
     14 H2         -3.3100    0.9173    1.0544 HC        1 <0>        0.03697
     15 H3         -1.1764   -0.5406    1.8720 HC        1 <0>        0.03743
     16 H4         -2.7817   -1.1321    1.6339 HC        1 <0>        0.03743
     17 H5         -2.0265    2.7170    0.6289 HC        1 <0>        0.04700
     18 H6         -0.9739    1.7931    1.6725 HC        1 <0>        0.04700
     19 H7         -1.1132   -2.6234    0.6353 HC        1 <0>        0.04603
     20 H8         -2.3873   -2.0983   -0.4352 HC        1 <0>        0.04603
     21 H9         -0.6898    1.4755   -1.3607 HC        1 <0>        0.04774
     22 H10        -0.2819    3.0035   -0.6488 HC        1 <0>        0.04774
     23 H11        -0.4665   -2.2061   -1.6941 HC        1 <0>        0.04652
     24 H12        -0.8579   -0.5242   -1.5904 HC        1 <0>        0.04652
     25 H13         2.3013   -0.0541    0.7413 HC        1 <0>        0.05144
     26 H14         0.7304   -0.1350    1.3685 HC        1 <0>        0.05144
     27 H15         1.7108    1.6714   -0.9061 H1        1 <0>        0.02401
     28 H16         2.8864   -0.7985   -1.5301 HC        1 <0>        0.04316
     29 H17         1.5004   -0.1148   -2.4010 HC        1 <0>        0.04316
     30 H18         1.7863   -1.8657   -2.4236 HC        1 <0>        0.04316
     31 H19         2.4012    2.0440    1.2237 HO        1 <0>        0.39555
     32 H20         2.3293   -2.1772    0.3503 HO        1 <0>        0.39523
@<TRIPOS>BOND
     1    1    2 1
     2    1    3 1
     3    2    4 1
     4    3    5 1
     5    4    6 1
     6    5    8 1
     7    6    9 1
     8    7    8 1
     9    7    9 1
    10    8   11 1
    11    9   10 1
    12    9   12 1
    13    1   13 1
    14    1   14 1
    15    2   15 1
    16    2   16 1
    17    3   17 1
    18    3   18 1
    19    4   19 1
    20    4   20 1
    21    5   21 1
    22    5   22 1
    23    6   23 1
    24    6   24 1
    25    7   25 1
    26    7   26 1
    27    8   27 1
    28   10   28 1
    29   10   29 1
    30   10   30 1
    31   11   31 1
    32   12   32 1
@<TRIPOS>SUBSTRUCTURE
     1 <0>         1 GROUP 0 A     ****
