@<TRIPOS>MOLECULE
AlkEthOH_c1201
   23    22     1     0     0
SMALL
USER_CHARGES

@<TRIPOS>ATOM
      1 C1         -3.2863   -0.7310   -0.7124 CT        1 <0>       -0.09644
      2 C2          0.7014    0.3726    1.6219 CT        1 <0>       -0.11079
      3 C3          0.0999    1.9098   -0.2296 CT        1 <0>       -0.11079
      4 C4         -1.9147   -0.1385   -0.9561 CT        1 <0>        0.13097
      5 C5          1.2175   -1.6250   -0.5133 CT        1 <0>        0.33306
      6 C6          0.1286    0.4352    0.1992 CT        1 <0>        0.34686
      7 O1          1.7185   -2.3197   -1.6443 OH        1 <0>       -0.58814
      8 O2         -1.2000   -0.1054    0.2717 OS        1 <0>       -0.45359
      9 O3          0.9801   -0.2395   -0.7409 OS        1 <0>       -0.43475
     10 H1         -3.2078   -1.7512   -0.3267 HC        1 <0>        0.04293
     11 H2         -3.8471   -0.1237    0.0057 HC        1 <0>        0.04293
     12 H3         -3.8695   -0.7476   -1.6391 HC        1 <0>        0.04293
     13 H4          0.7460   -0.6614    1.9827 HC        1 <0>        0.05426
     14 H5          0.1070    0.9704    2.3208 HC        1 <0>        0.05426
     15 H6          1.7308    0.7465    1.6521 HC        1 <0>        0.05426
     16 H7         -0.3018    2.0197   -1.2432 HC        1 <0>        0.05426
     17 H8          1.1110    2.3316   -0.2555 HC        1 <0>        0.05426
     18 H9         -0.5224    2.5109    0.4417 HC        1 <0>        0.05426
     19 H10        -2.0003    0.8818   -1.3417 H1        1 <0>        0.03896
     20 H11        -1.3555   -0.7469   -1.6731 H1        1 <0>        0.03896
     21 H12         1.9876   -1.6858    0.2615 H2        1 <0>        0.02233
     22 H13         0.3329   -2.1318   -0.1154 H2        1 <0>        0.02233
     23 H14         1.8426   -3.2467   -1.3788 HO        1 <0>        0.40668
@<TRIPOS>BOND
     1    1    4 1
     2    2    6 1
     3    3    6 1
     4    4    8 1
     5    5    7 1
     6    5    9 1
     7    6    8 1
     8    6    9 1
     9    1   10 1
    10    1   11 1
    11    1   12 1
    12    2   13 1
    13    2   14 1
    14    2   15 1
    15    3   16 1
    16    3   17 1
    17    3   18 1
    18    4   19 1
    19    4   20 1
    20    5   21 1
    21    5   22 1
    22    7   23 1
@<TRIPOS>SUBSTRUCTURE
     1 <0>         1 GROUP 0 A     ****
