@<TRIPOS>MOLECULE
AlkEthOH_c986
   21    20     1     0     0
SMALL
USER_CHARGES

@<TRIPOS>ATOM
      1 C1          0.9784   -0.0326   -0.2360 CT        1 <0>       -0.08960
      2 C2         -3.0008   -0.1992   -3.0903 CT        1 <0>       -0.09591
      3 C3          1.0608    0.9421   -3.9925 CT        1 <0>       -0.12228
      4 C4          1.4098    0.6794   -1.5114 CT        1 <0>       -0.07695
      5 C5         -1.5335   -0.4576   -3.3587 CT        1 <0>        0.12973
      6 C6          0.6395    0.1877   -2.7386 CT        1 <0>        0.13965
      7 O1         -0.7550    0.3897   -2.5267 OS        1 <0>       -0.42229
      8 H1         -0.0930    0.1019   -0.0565 HC        1 <0>        0.03627
      9 H2          1.5239    0.3435    0.6351 HC        1 <0>        0.03627
     10 H3          1.1759   -1.1062   -0.3184 HC        1 <0>        0.03627
     11 H4         -3.2497   -0.4105   -2.0466 HC        1 <0>        0.04397
     12 H5         -3.2559    0.8426   -3.3107 HC        1 <0>        0.04397
     13 H6         -3.6270   -0.8236   -3.7362 HC        1 <0>        0.04397
     14 H7          0.9007    2.0196   -3.8742 HC        1 <0>        0.04138
     15 H8          2.1149    0.7666   -4.2274 HC        1 <0>        0.04138
     16 H9          0.4568    0.6272   -4.8504 HC        1 <0>        0.04138
     17 H10         2.4847    0.5237   -1.6590 HC        1 <0>        0.04624
     18 H11         1.2456    1.7551   -1.3741 HC        1 <0>        0.04624
     19 H12        -1.2913   -0.2443   -4.4041 H1        1 <0>        0.02252
     20 H13        -1.2802   -1.4986   -3.1372 H1        1 <0>        0.02252
     21 H14         0.8085   -0.8858   -2.8804 H1        1 <0>        0.03527
@<TRIPOS>BOND
     1    1    4 1
     2    2    5 1
     3    3    6 1
     4    4    6 1
     5    5    7 1
     6    6    7 1
     7    1    8 1
     8    1    9 1
     9    1   10 1
    10    2   11 1
    11    2   12 1
    12    2   13 1
    13    3   14 1
    14    3   15 1
    15    3   16 1
    16    4   17 1
    17    4   18 1
    18    5   19 1
    19    5   20 1
    20    6   21 1
@<TRIPOS>SUBSTRUCTURE
     1 <0>         1 GROUP 0 A     ****
