@<TRIPOS>MOLECULE
AlkEthOH_r221
   19    19     1     0     0
SMALL
USER_CHARGES

@<TRIPOS>ATOM
      1 C1          1.0353   -0.1195   -0.3700 CT        1 <0>       -0.10126
      2 C2         -0.7335    0.1417    0.8171 CT        1 <0>       -0.10126
      3 C3          0.5444   -0.7138    0.9687 CT        1 <0>        0.11810
      4 C4         -0.4366    0.2520   -0.7046 CT        1 <0>       -0.06950
      5 C5         -0.6089    1.6577   -1.2701 CT        1 <0>       -0.07870
      6 C6         -1.1630   -0.7884   -1.5576 CT        1 <0>       -0.07870
      7 O1          1.3622   -0.4296    2.1165 OH        1 <0>       -0.58589
      8 H1          1.7085    0.7375   -0.2463 HC        1 <0>        0.05939
      9 H2          1.5130   -0.8341   -1.0475 HC        1 <0>        0.05939
     10 H3         -1.6653   -0.3650    1.0862 HC        1 <0>        0.05939
     11 H4         -0.6899    1.0916    1.3637 HC        1 <0>        0.05939
     12 H5          0.3443   -1.7906    0.9015 H1        1 <0>        0.04419
     13 H6         -1.6611    1.8474   -1.4800 HC        1 <0>        0.03612
     14 H7         -0.0392    1.7591   -2.1933 HC        1 <0>        0.03612
     15 H8         -0.2523    2.3939   -0.5503 HC        1 <0>        0.03612
     16 H9         -2.1825   -0.4596   -1.7491 HC        1 <0>        0.03612
     17 H10        -1.1870   -1.7415   -1.0331 HC        1 <0>        0.03612
     18 H11        -0.6433   -0.9142   -2.5054 HC        1 <0>        0.03612
     19 H12         0.9286   -0.8635    2.8631 HO        1 <0>        0.39874
@<TRIPOS>BOND
     1    1    3 1
     2    1    4 1
     3    2    3 1
     4    2    4 1
     5    3    7 1
     6    4    5 1
     7    4    6 1
     8    1    8 1
     9    1    9 1
    10    2   10 1
    11    2   11 1
    12    3   12 1
    13    5   13 1
    14    5   14 1
    15    5   15 1
    16    6   16 1
    17    6   17 1
    18    6   18 1
    19    7   19 1
@<TRIPOS>SUBSTRUCTURE
     1 <0>         1 GROUP 0 A     ****
