@<TRIPOS>MOLECULE
AlkEthOH_c1074
   26    25     1     0     0
SMALL
USER_CHARGES

@<TRIPOS>ATOM
      1 C1          0.1501    1.2399    3.1208 CT        1 <0>       -0.09240
      2 C2          0.2106    0.1270   -2.7361 CT        1 <0>       -0.09008
      3 C3         -1.6873    0.4545   -1.1374 CT        1 <0>       -0.09008
      4 C4          0.1769   -2.0895   -0.6378 CT        1 <0>       -0.09026
      5 C5          0.4849    1.0564    1.6479 CT        1 <0>       -0.08119
      6 C6          0.2076   -0.3766    1.1877 CT        1 <0>       -0.07526
      7 C7         -0.1637    0.3890   -1.2722 CT        1 <0>       -0.06177
      8 C8          0.5124   -0.6277   -0.3078 CT        1 <0>       -0.05875
      9 H1         -0.9018    0.9983    3.3032 HC        1 <0>        0.03208
     10 H2          0.3201    2.2743    3.4365 HC        1 <0>        0.03208
     11 H3          0.7633    0.5837    3.7467 HC        1 <0>        0.03208
     12 H4         -0.1446   -0.8564   -3.0609 HC        1 <0>        0.03319
     13 H5          1.2991    0.1433   -2.8605 HC        1 <0>        0.03319
     14 H6         -0.2060    0.8844   -3.4072 HC        1 <0>        0.03319
     15 H7         -2.1332   -0.5207   -1.3631 HC        1 <0>        0.03319
     16 H8         -2.1217    1.1759   -1.8354 HC        1 <0>        0.03319
     17 H9         -1.9941    0.7291   -0.1235 HC        1 <0>        0.03319
     18 H10        -0.8987   -2.2696   -0.5306 HC        1 <0>        0.03342
     19 H11         0.4527   -2.3465   -1.6651 HC        1 <0>        0.03342
     20 H12         0.6834   -2.7828    0.0395 HC        1 <0>        0.03342
     21 H13         1.5405    1.3028    1.4862 HC        1 <0>        0.03944
     22 H14        -0.1121    1.7672    1.0673 HC        1 <0>        0.03944
     23 H15         0.8286   -1.0574    1.7854 HC        1 <0>        0.03909
     24 H16        -0.8329   -0.6399    1.4132 HC        1 <0>        0.03909
     25 H17         0.2284    1.3861   -1.0365 HC        1 <0>        0.04473
     26 H18         1.5987   -0.5174   -0.4346 HC        1 <0>        0.04236
@<TRIPOS>BOND
     1    1    5 1
     2    2    7 1
     3    3    7 1
     4    4    8 1
     5    5    6 1
     6    6    8 1
     7    7    8 1
     8    1    9 1
     9    1   10 1
    10    1   11 1
    11    2   12 1
    12    2   13 1
    13    2   14 1
    14    3   15 1
    15    3   16 1
    16    3   17 1
    17    4   18 1
    18    4   19 1
    19    4   20 1
    20    5   21 1
    21    5   22 1
    22    6   23 1
    23    6   24 1
    24    7   25 1
    25    8   26 1
@<TRIPOS>SUBSTRUCTURE
     1 <0>         1 GROUP 0 A     ****
