@<TRIPOS>MOLECULE
AlkEthOH_c302
   25    24     1     0     0
SMALL
USER_CHARGES

@<TRIPOS>ATOM
      1 C1         -0.4129    0.0272   -2.1582 CT        1 <0>       -0.08828
      2 C2         -1.2257   -1.4237   -0.2913 CT        1 <0>       -0.08828
      3 C3         -0.6631    1.5234    0.5961 CT        1 <0>       -0.12620
      4 C4          2.5411   -1.6348    2.4188 CT        1 <0>        0.11326
      5 C5          0.9861   -0.1121    1.5321 CT        1 <0>        0.09563
      6 C6         -0.0535   -0.5724   -0.7898 CT        1 <0>       -0.05328
      7 C7          0.4236    0.5013    0.2354 CT        1 <0>        0.16180
      8 O1          1.4976    1.2257   -0.3873 OH        1 <0>       -0.58624
      9 O2          2.0199   -1.0442    1.2366 OS        1 <0>       -0.40625
     10 H1         -1.2518    0.7259   -2.0821 HC        1 <0>        0.03594
     11 H2         -0.6744   -0.7482   -2.8851 HC        1 <0>        0.03594
     12 H3          0.4388    0.5835   -2.5657 HC        1 <0>        0.03594
     13 H4         -2.0974   -0.7924   -0.0855 HC        1 <0>        0.03594
     14 H5         -1.5344   -2.1606   -1.0385 HC        1 <0>        0.03594
     15 H6         -0.9778   -1.9539    0.6333 HC        1 <0>        0.03594
     16 H7         -1.0985    1.9916   -0.2914 HC        1 <0>        0.04413
     17 H8         -1.4752    1.0421    1.1546 HC        1 <0>        0.04413
     18 H9         -0.2755    2.3064    1.2557 HC        1 <0>        0.04413
     19 H10         3.3305   -2.3431    2.1556 H1        1 <0>        0.03349
     20 H11         1.7391   -2.1490    2.9544 H1        1 <0>        0.03349
     21 H12         2.9564   -0.8497    3.0551 H1        1 <0>        0.03349
     22 H13         1.4221    0.6646    2.1704 H1        1 <0>        0.02854
     23 H14         0.2074   -0.6296    2.1015 H1        1 <0>        0.02854
     24 H15         0.7900   -1.2505   -0.9803 HC        1 <0>        0.07610
     25 H16         1.8007    1.8656    0.2704 HO        1 <0>        0.39616
@<TRIPOS>BOND
     1    1    6 1
     2    2    6 1
     3    3    7 1
     4    4    9 1
     5    5    7 1
     6    5    9 1
     7    6    7 1
     8    7    8 1
     9    1   10 1
    10    1   11 1
    11    1   12 1
    12    2   13 1
    13    2   14 1
    14    2   15 1
    15    3   16 1
    16    3   17 1
    17    3   18 1
    18    4   19 1
    19    4   20 1
    20    4   21 1
    21    5   22 1
    22    5   23 1
    23    6   24 1
    24    8   25 1
@<TRIPOS>SUBSTRUCTURE
     1 <0>         1 GROUP 0 A     ****
