@<TRIPOS>MOLECULE
AlkEthOH_c962
   26    25     1     0     0
SMALL
USER_CHARGES

@<TRIPOS>ATOM
      1 C1          0.0395   -0.8615    2.8242 CT        1 <0>       -0.09142
      2 C2          1.6580    0.5365    0.7146 CT        1 <0>       -0.09260
      3 C3         -1.4085   -0.7660   -1.4337 CT        1 <0>       -0.08740
      4 C4         -0.7606    1.5901   -0.9104 CT        1 <0>       -0.08740
      5 C5          0.8058    0.1319   -2.1678 CT        1 <0>       -0.08740
      6 C6         -0.5691   -0.3621    1.5179 CT        1 <0>       -0.07881
      7 C7          0.4313   -0.3116    0.3342 CT        1 <0>       -0.04978
      8 C8         -0.2333    0.1415   -1.0241 CT        1 <0>       -0.05011
      9 H1          0.8817   -0.2403    3.1417 HC        1 <0>        0.03255
     10 H2          0.3824   -1.8965    2.7291 HC        1 <0>        0.03255
     11 H3         -0.7095   -0.8256    3.6222 HC        1 <0>        0.03255
     12 H4          1.3770    1.5805    0.8856 HC        1 <0>        0.03381
     13 H5          2.4174    0.5220   -0.0730 HC        1 <0>        0.03381
     14 H6          2.1195    0.1970    1.6451 HC        1 <0>        0.03381
     15 H7         -1.0995   -1.8113   -1.5319 HC        1 <0>        0.03384
     16 H8         -2.2274   -0.7210   -0.7089 HC        1 <0>        0.03384
     17 H9         -1.8190   -0.4593   -2.4032 HC        1 <0>        0.03384
     18 H10         0.0398    2.2796   -0.6199 HC        1 <0>        0.03384
     19 H11        -1.1667    1.9400   -1.8670 HC        1 <0>        0.03384
     20 H12        -1.5697    1.6772   -0.1787 HC        1 <0>        0.03384
     21 H13         1.6658    0.7656   -1.9246 HC        1 <0>        0.03384
     22 H14         0.3710    0.5091   -3.1011 HC        1 <0>        0.03384
     23 H15         1.1726   -0.8769   -2.3819 HC        1 <0>        0.03384
     24 H16        -1.3967   -1.0368    1.2788 HC        1 <0>        0.03904
     25 H17        -1.0031    0.6284    1.6937 HC        1 <0>        0.03904
     26 H18         0.7968   -1.3374    0.1811 HC        1 <0>        0.04320
@<TRIPOS>BOND
     1    1    6 1
     2    2    7 1
     3    3    8 1
     4    4    8 1
     5    5    8 1
     6    6    7 1
     7    7    8 1
     8    1    9 1
     9    1   10 1
    10    1   11 1
    11    2   12 1
    12    2   13 1
    13    2   14 1
    14    3   15 1
    15    3   16 1
    16    3   17 1
    17    4   18 1
    18    4   19 1
    19    4   20 1
    20    5   21 1
    21    5   22 1
    22    5   23 1
    23    6   24 1
    24    6   25 1
    25    7   26 1
@<TRIPOS>SUBSTRUCTURE
     1 <0>         1 GROUP 0 A     ****
