@<TRIPOS>MOLECULE
AlkEthOH_c1012
   24    23     1     0     0
SMALL
USER_CHARGES

@<TRIPOS>ATOM
      1 C1         -1.6559    2.4861    1.7791 CT        1 <0>       -0.09163
      2 C2          1.2970   -2.4399   -1.0333 CT        1 <0>       -0.09107
      3 C3          1.3487   -0.1043   -1.9149 CT        1 <0>       -0.09107
      4 C4         -1.5321    1.0333    1.3465 CT        1 <0>       -0.08009
      5 C5         -0.2403    0.7918    0.5583 CT        1 <0>       -0.10921
      6 C6          1.2083   -0.9580   -0.6512 CT        1 <0>       -0.09771
      7 C7         -0.0875   -0.6800    0.1455 CT        1 <0>        0.14011
      8 O1         -1.2323   -1.0928   -0.5988 OH        1 <0>       -0.59470
      9 H1         -0.8008    2.7872    2.3925 HC        1 <0>        0.03271
     10 H2         -2.5653    2.6288    2.3709 HC        1 <0>        0.03271
     11 H3         -1.7074    3.1508    0.9109 HC        1 <0>        0.03271
     12 H4          0.4659   -2.7231   -1.6876 HC        1 <0>        0.03655
     13 H5          2.2331   -2.6673   -1.5541 HC        1 <0>        0.03655
     14 H6          1.2469   -3.0733   -0.1412 HC        1 <0>        0.03655
     15 H7          0.5155   -0.2948   -2.6005 HC        1 <0>        0.03655
     16 H8          1.3491    0.9659   -1.6844 HC        1 <0>        0.03655
     17 H9          2.2702   -0.3396   -2.4553 HC        1 <0>        0.03655
     18 H10        -2.4028    0.7679    0.7362 HC        1 <0>        0.04576
     19 H11        -1.5502    0.3920    2.2353 HC        1 <0>        0.04576
     20 H12        -0.2606    1.4330   -0.3308 HC        1 <0>        0.04352
     21 H13         0.6194    1.0938    1.1683 HC        1 <0>        0.04352
     22 H14         2.0621   -0.7330    0.0012 HC        1 <0>        0.05154
     23 H15        -0.0674   -1.2944    1.0539 H1        1 <0>        0.07211
     24 H16        -1.2748   -0.5187   -1.3787 HO        1 <0>        0.39573
@<TRIPOS>BOND
     1    1    4 1
     2    2    6 1
     3    3    6 1
     4    4    5 1
     5    5    7 1
     6    6    7 1
     7    7    8 1
     8    1    9 1
     9    1   10 1
    10    1   11 1
    11    2   12 1
    12    2   13 1
    13    2   14 1
    14    3   15 1
    15    3   16 1
    16    3   17 1
    17    4   18 1
    18    4   19 1
    19    5   20 1
    20    5   21 1
    21    6   22 1
    22    7   23 1
    23    8   24 1
@<TRIPOS>SUBSTRUCTURE
     1 <0>         1 GROUP 0 A     ****
