@<TRIPOS>MOLECULE
AlkEthOH_c1168
   20    19     1     0     0
SMALL
USER_CHARGES

@<TRIPOS>ATOM
      1 C1          0.7307    0.5819   -3.3854 CT        1 <0>       -0.09723
      2 C2         -0.5877   -1.9370    0.6464 CT        1 <0>       -0.12913
      3 C3          0.0081    0.9869   -2.1183 CT        1 <0>        0.13608
      4 C4          0.0325   -0.6500    1.1711 CT        1 <0>        0.12046
      5 C5         -0.1404    0.5253    0.2012 CT        1 <0>        0.30218
      6 O1          1.4217   -0.8948    1.3922 OH        1 <0>       -0.60092
      7 O2          0.4290    1.6802    0.8139 OH        1 <0>       -0.62000
      8 O3          0.4943    0.2029   -1.0375 OS        1 <0>       -0.45857
      9 H1          1.8075    0.7479   -3.2906 HC        1 <0>        0.04400
     10 H2          0.5543   -0.4752   -3.6093 HC        1 <0>        0.04400
     11 H3          0.3591    1.1549   -4.2414 HC        1 <0>        0.04400
     12 H4         -0.1679   -2.2165   -0.3259 HC        1 <0>        0.05227
     13 H5         -1.6734   -1.8434    0.5485 HC        1 <0>        0.05227
     14 H6         -0.3704   -2.7671    1.3275 HC        1 <0>        0.05227
     15 H7         -1.0681    0.8185   -2.2198 H1        1 <0>        0.03320
     16 H8          0.1862    2.0432   -1.8956 H1        1 <0>        0.03320
     17 H9         -0.4082   -0.3991    2.1427 H1        1 <0>        0.08146
     18 H10        -1.2122    0.7011    0.0428 H2        1 <0>        0.07029
     19 H11         1.4731   -1.6101    2.0440 HO        1 <0>        0.41394
     20 H12        -0.0519    1.8327    1.6450 HO        1 <0>        0.42623
@<TRIPOS>BOND
     1    1    3 1
     2    2    4 1
     3    3    8 1
     4    4    5 1
     5    4    6 1
     6    5    7 1
     7    5    8 1
     8    1    9 1
     9    1   10 1
    10    1   11 1
    11    2   12 1
    12    2   13 1
    13    2   14 1
    14    3   15 1
    15    3   16 1
    16    4   17 1
    17    5   18 1
    18    6   19 1
    19    7   20 1
@<TRIPOS>SUBSTRUCTURE
     1 <0>         1 GROUP 0 A     ****
