@<TRIPOS>MOLECULE
AlkEthOH_r630
   24    24     1     0     0
SMALL
USER_CHARGES

@<TRIPOS>ATOM
      1 C1          0.8348    1.9128   -0.7518 CT        1 <0>       -0.10865
      2 C2          1.6606    0.7661   -1.3359 CT        1 <0>       -0.09421
      3 C3          0.7821    1.9532    0.7754 CT        1 <0>        0.13022
      4 C4          1.2201   -0.6357   -0.9246 CT        1 <0>        0.13768
      5 C5         -0.9765    0.3371    1.0012 CT        1 <0>        0.07605
      6 C6         -0.9209   -0.9544    0.1654 CT        1 <0>        0.32902
      7 C7         -2.3486   -1.3350   -0.2412 CT        1 <0>       -0.11231
      8 O1          0.3340    0.7475    1.3870 OS        1 <0>       -0.41412
      9 O2         -0.1901   -0.7870   -1.0567 OS        1 <0>       -0.41472
     10 O3         -0.3955   -2.0047    0.9811 OH        1 <0>       -0.60817
     11 H1          1.2523    2.8620   -1.1094 HC        1 <0>        0.05020
     12 H2         -0.1799    1.8596   -1.1624 HC        1 <0>        0.05020
     13 H3          1.5892    0.8416   -2.4286 HC        1 <0>        0.04424
     14 H4          2.7190    0.8989   -1.0829 HC        1 <0>        0.04424
     15 H5          1.7865    2.1514    1.1651 H1        1 <0>        0.04620
     16 H6          0.1431    2.7793    1.1090 H1        1 <0>        0.04620
     17 H7          1.6859   -1.3592   -1.6032 H1        1 <0>        0.06108
     18 H8          1.5830   -0.8860    0.0777 H1        1 <0>        0.06108
     19 H9         -1.5058    1.1392    0.4744 H1        1 <0>        0.05333
     20 H10        -1.5194    0.1427    1.9335 H1        1 <0>        0.05333
     21 H11        -2.3276   -2.2465   -0.8331 HC        1 <0>        0.05228
     22 H12        -2.7853   -0.5325   -0.8300 HC        1 <0>        0.05228
     23 H13        -2.9497   -1.4972    0.6499 HC        1 <0>        0.05228
     24 H14        -1.0014   -2.0948    1.7312 HO        1 <0>        0.41227
@<TRIPOS>BOND
     1    1    2 1
     2    1    3 1
     3    2    4 1
     4    3    8 1
     5    4    9 1
     6    5    6 1
     7    5    8 1
     8    6    7 1
     9    6    9 1
    10    6   10 1
    11    1   11 1
    12    1   12 1
    13    2   13 1
    14    2   14 1
    15    3   15 1
    16    3   16 1
    17    4   17 1
    18    4   18 1
    19    5   19 1
    20    5   20 1
    21    7   21 1
    22    7   22 1
    23    7   23 1
    24   10   24 1
@<TRIPOS>SUBSTRUCTURE
     1 <0>         1 GROUP 0 A     ****
