@<TRIPOS>MOLECULE
AlkEthOH_c185
   27    26     1     0     0
SMALL
USER_CHARGES

@<TRIPOS>ATOM
      1 C1          1.9893    1.2742   -0.7362 CT        1 <0>       -0.11062
      2 C2          3.7681   -0.4789   -0.4682 CT        1 <0>       -0.11062
      3 C3          2.0365   -0.7195   -2.2716 CT        1 <0>       -0.11062
      4 C4         -0.4893   -1.2365    1.2799 CT        1 <0>       -0.11370
      5 C5         -1.8882    0.2217   -0.7917 CT        1 <0>        0.34621
      6 C6          2.3152   -0.2137   -0.8569 CT        1 <0>        0.17766
      7 C7          0.2155   -0.3009    0.2882 CT        1 <0>        0.54341
      8 O1         -1.9476    1.5846   -0.3954 OH        1 <0>       -0.61180
      9 O2          0.4002    0.9795    0.8992 OH        1 <0>       -0.67313
     10 O3         -0.5535   -0.2530   -0.9247 OS        1 <0>       -0.46624
     11 O4          1.4907   -0.9326    0.0515 OS        1 <0>       -0.45026
     12 H1          0.9473    1.4687   -1.0143 HC        1 <0>        0.04710
     13 H2          2.1517    1.6414    0.2824 HC        1 <0>        0.04710
     14 H3          2.6076    1.8667   -1.4203 HC        1 <0>        0.04710
     15 H4          4.0063   -1.5453   -0.5534 HC        1 <0>        0.04710
     16 H5          3.9486   -0.2048    0.5775 HC        1 <0>        0.04710
     17 H6          4.4641    0.0833   -1.0991 HC        1 <0>        0.04710
     18 H7          2.2702   -1.7868   -2.3585 HC        1 <0>        0.04710
     19 H8          0.9893   -0.5709   -2.5540 HC        1 <0>        0.04710
     20 H9          2.6707   -0.2037   -3.0018 HC        1 <0>        0.04710
     21 H10        -0.6444   -2.2270    0.8379 HC        1 <0>        0.05992
     22 H11        -1.4648   -0.8497    1.5898 HC        1 <0>        0.05992
     23 H12         0.1123   -1.3645    2.1872 HC        1 <0>        0.05992
     24 H13        -2.4877   -0.3927   -0.1134 H2        1 <0>        0.05880
     25 H14        -2.3485    0.1590   -1.7819 H2        1 <0>        0.05880
     26 H15        -2.8882    1.8215   -0.3301 HO        1 <0>        0.42184
     27 H16         0.9445    0.8762    1.6971 HO        1 <0>        0.43661
@<TRIPOS>BOND
     1    1    6 1
     2    2    6 1
     3    3    6 1
     4    4    7 1
     5    5    8 1
     6    5   10 1
     7    6   11 1
     8    7    9 1
     9    7   10 1
    10    7   11 1
    11    1   12 1
    12    1   13 1
    13    1   14 1
    14    2   15 1
    15    2   16 1
    16    2   17 1
    17    3   18 1
    18    3   19 1
    19    3   20 1
    20    4   21 1
    21    4   22 1
    22    4   23 1
    23    5   24 1
    24    5   25 1
    25    8   26 1
    26    9   27 1
@<TRIPOS>SUBSTRUCTURE
     1 <0>         1 GROUP 0 A     ****
