@<TRIPOS>MOLECULE
AlkEthOH_c1003
   22    21     1     0     0
SMALL
USER_CHARGES

@<TRIPOS>ATOM
      1 C1         -0.0180   -2.1330    0.0536 CT        1 <0>       -0.08968
      2 C2         -2.1196    2.3573    1.3841 CT        1 <0>       -0.10785
      3 C3         -0.7415    0.6417    2.6127 CT        1 <0>       -0.10785
      4 C4          0.3516   -1.0384   -0.9358 CT        1 <0>       -0.10985
      5 C5         -0.8692    1.4915    1.3575 CT        1 <0>        0.14286
      6 C6          0.3872    0.3493   -0.2938 CT        1 <0>        0.33078
      7 O1          0.7818    1.2727   -1.3053 OH        1 <0>       -0.62113
      8 O2         -0.9129    0.6416    0.2195 OS        1 <0>       -0.41502
      9 H1          0.6871   -2.1579    0.8905 HC        1 <0>        0.03997
     10 H2         -1.0249   -1.9845    0.4557 HC        1 <0>        0.03997
     11 H3          0.0058   -3.1102   -0.4389 HC        1 <0>        0.03997
     12 H4         -3.0227    1.7477    1.4844 HC        1 <0>        0.04262
     13 H5         -2.0777    3.0615    2.2219 HC        1 <0>        0.04262
     14 H6         -2.2023    2.9589    0.4721 HC        1 <0>        0.04262
     15 H7         -1.6119   -0.0088    2.7423 HC        1 <0>        0.04262
     16 H8         -0.6471    1.2805    3.4974 HC        1 <0>        0.04262
     17 H9          0.1591    0.0189    2.5770 HC        1 <0>        0.04262
     18 H10        -0.3757   -1.0449   -1.7576 HC        1 <0>        0.05414
     19 H11         1.3271   -1.2623   -1.3843 HC        1 <0>        0.05414
     20 H12         0.0149    2.1295    1.2567 H1        1 <0>        0.04967
     21 H13         1.1311    0.3595    0.5129 H2        1 <0>        0.03640
     22 H14         1.6612    0.9998   -1.6172 HO        1 <0>        0.40776
@<TRIPOS>BOND
     1    1    4 1
     2    2    5 1
     3    3    5 1
     4    4    6 1
     5    5    8 1
     6    6    7 1
     7    6    8 1
     8    1    9 1
     9    1   10 1
    10    1   11 1
    11    2   12 1
    12    2   13 1
    13    2   14 1
    14    3   15 1
    15    3   16 1
    16    3   17 1
    17    4   18 1
    18    4   19 1
    19    5   20 1
    20    6   21 1
    21    7   22 1
@<TRIPOS>SUBSTRUCTURE
     1 <0>         1 GROUP 0 A     ****
