@<TRIPOS>MOLECULE
AlkEthOH_c408
   23    22     1     0     0
SMALL
USER_CHARGES

@<TRIPOS>ATOM
      1 C1         -0.1769   -0.3057   -1.0577 CT        1 <0>       -0.09016
      2 C2         -1.7823   -0.1980   -2.9739 CT        1 <0>       -0.09016
      3 C3         -2.9176    0.7927    1.2735 CT        1 <0>       -0.09016
      4 C4         -3.6946   -1.5788    1.4553 CT        1 <0>       -0.09016
      5 C5         -2.6543   -0.8084   -0.6980 CT        1 <0>       -0.06948
      6 C6         -1.6117    0.0267   -1.4683 CT        1 <0>       -0.06714
      7 C7         -2.6485   -0.6472    0.8355 CT        1 <0>       -0.06714
      8 H1          0.0418   -1.3646   -1.2332 HC        1 <0>        0.03298
      9 H2          0.5481    0.2736   -1.6372 HC        1 <0>        0.03298
     10 H3         -0.0099   -0.0984    0.0047 HC        1 <0>        0.03298
     11 H4         -1.6176   -1.2497   -3.2315 HC        1 <0>        0.03298
     12 H5         -2.7887    0.0785   -3.3063 HC        1 <0>        0.03298
     13 H6         -1.0609    0.4000   -3.5408 HC        1 <0>        0.03298
     14 H7         -3.8857    1.1466    0.9069 HC        1 <0>        0.03298
     15 H8         -2.9109    0.8835    2.3649 HC        1 <0>        0.03298
     16 H9         -2.1542    1.4692    0.8740 HC        1 <0>        0.03298
     17 H10        -4.6997   -1.3256    1.1012 HC        1 <0>        0.03298
     18 H11        -3.4985   -2.6253    1.1980 HC        1 <0>        0.03298
     19 H12        -3.6951   -1.4918    2.5470 HC        1 <0>        0.03298
     20 H13        -2.5022   -1.8697   -0.9376 HC        1 <0>        0.03810
     21 H14        -3.6538   -0.5522   -1.0753 HC        1 <0>        0.03810
     22 H15        -1.7883    1.0915   -1.2770 HC        1 <0>        0.04622
     23 H16        -1.6708   -0.9509    1.2274 HC        1 <0>        0.04622
@<TRIPOS>BOND
     1    1    6 1
     2    2    6 1
     3    3    7 1
     4    4    7 1
     5    5    6 1
     6    5    7 1
     7    1    8 1
     8    1    9 1
     9    1   10 1
    10    2   11 1
    11    2   12 1
    12    2   13 1
    13    3   14 1
    14    3   15 1
    15    3   16 1
    16    4   17 1
    17    4   18 1
    18    4   19 1
    19    5   20 1
    20    5   21 1
    21    6   22 1
    22    7   23 1
@<TRIPOS>SUBSTRUCTURE
     1 <0>         1 GROUP 0 A     ****
