@<TRIPOS>MOLECULE
AlkEthOH_c147
   25    24     1     0     0
SMALL
USER_CHARGES

@<TRIPOS>ATOM
      1 C1          0.2892    1.8579   -0.3167 CT        1 <0>       -0.08927
      2 C2         -1.0083    0.2682   -1.7394 CT        1 <0>       -0.08927
      3 C3          1.4565    0.0354   -1.5590 CT        1 <0>       -0.08927
      4 C4         -1.2745   -0.2967    1.2951 CT        1 <0>       -0.08042
      5 C5          0.0188   -2.0848    0.0642 CT        1 <0>        0.10155
      6 C6          0.1801    0.3829   -0.7547 CT        1 <0>       -0.07810
      7 C7         -0.0051   -0.5949    0.4749 CT        1 <0>        0.16578
      8 O1         -0.3966   -2.9103    1.1509 OH        1 <0>       -0.58891
      9 O2          1.1100   -0.3935    1.3618 OH        1 <0>       -0.58644
     10 H1          1.1143    2.0136    0.3851 HC        1 <0>        0.03752
     11 H2         -0.6315    2.2129    0.1559 HC        1 <0>        0.03752
     12 H3          0.4763    2.5086   -1.1795 HC        1 <0>        0.03752
     13 H4         -1.1427   -0.7601   -2.0918 HC        1 <0>        0.03752
     14 H5         -0.8499    0.8974   -2.6235 HC        1 <0>        0.03752
     15 H6         -1.9472    0.5982   -1.2835 HC        1 <0>        0.03752
     16 H7          1.4356   -1.0071   -1.8988 HC        1 <0>        0.03752
     17 H8          1.5549    0.6551   -2.4557 HC        1 <0>        0.03752
     18 H9          2.3621    0.1614   -0.9560 HC        1 <0>        0.03752
     19 H10        -1.3260    0.7511    1.6042 HC        1 <0>        0.05082
     20 H11        -2.1810   -0.5218    0.7212 HC        1 <0>        0.05082
     21 H12        -1.3402   -0.9315    2.1838 HC        1 <0>        0.05082
     22 H13         1.0306   -2.4070   -0.1979 H1        1 <0>        0.02588
     23 H14        -0.6539   -2.2827   -0.7745 H1        1 <0>        0.02588
     24 H15        -0.3599   -3.8247    0.8311 HO        1 <0>        0.39689
     25 H16         1.8993   -0.5828    0.8382 HO        1 <0>        0.39556
@<TRIPOS>BOND
     1    1    6 1
     2    2    6 1
     3    3    6 1
     4    4    7 1
     5    5    7 1
     6    5    8 1
     7    6    7 1
     8    7    9 1
     9    1   10 1
    10    1   11 1
    11    1   12 1
    12    2   13 1
    13    2   14 1
    14    2   15 1
    15    3   16 1
    16    3   17 1
    17    3   18 1
    18    4   19 1
    19    4   20 1
    20    4   21 1
    21    5   22 1
    22    5   23 1
    23    8   24 1
    24    9   25 1
@<TRIPOS>SUBSTRUCTURE
     1 <0>         1 GROUP 0 A     ****
