@<TRIPOS>MOLECULE
AlkEthOH_r610
   24    24     1     0     0
SMALL
USER_CHARGES

@<TRIPOS>ATOM
      1 C1         -1.7713    0.5529    0.4436 CT        1 <0>       -0.17594
      2 C2         -1.8207   -0.9205    0.8410 CT        1 <0>        0.13164
      3 C3          0.5514   -1.0254    1.1148 CT        1 <0>        0.10121
      4 C4         -0.8560    0.8461   -0.7411 CT        1 <0>        0.34849
      5 C5          1.2334   -0.1912    0.0173 CT        1 <0>        0.14114
      6 C6          1.5096   -1.0150   -1.2492 CT        1 <0>       -0.10176
      7 C7          2.5744    0.3240    0.5640 CT        1 <0>       -0.10176
      8 O1         -0.6239   -1.6510    0.6146 OS        1 <0>       -0.41697
      9 O2          0.4921    0.9908   -0.3054 OS        1 <0>       -0.46222
     10 O3         -1.2889    2.0894   -1.2997 OH        1 <0>       -0.59290
     11 H1         -2.7948    0.8953    0.2462 HC        1 <0>        0.06364
     12 H2         -1.4270    1.1379    1.3070 HC        1 <0>        0.06364
     13 H3         -2.1079   -1.0198    1.8943 H1        1 <0>        0.04911
     14 H4         -2.6009   -1.4208    0.2566 H1        1 <0>        0.04911
     15 H5          1.2216   -1.8336    1.4298 H1        1 <0>        0.05681
     16 H6          0.3227   -0.4273    2.0055 H1        1 <0>        0.05681
     17 H7         -0.9574    0.0900   -1.5256 H2        1 <0>        0.08621
     18 H8          1.9899   -0.3847   -1.9916 HC        1 <0>        0.04777
     19 H9          0.5717   -1.3927   -1.6452 HC        1 <0>        0.04777
     20 H10         2.1617   -1.8476   -1.0026 HC        1 <0>        0.04777
     21 H11         3.0700    0.9160   -0.1991 HC        1 <0>        0.04777
     22 H12         3.2007   -0.5205    0.8338 HC        1 <0>        0.04777
     23 H13         2.3929    0.9380    1.4407 HC        1 <0>        0.04777
     24 H14        -1.2002    2.7485   -0.5958 HO        1 <0>        0.41712
@<TRIPOS>BOND
     1    1    2 1
     2    1    4 1
     3    2    8 1
     4    3    5 1
     5    3    8 1
     6    4    9 1
     7    4   10 1
     8    5    6 1
     9    5    7 1
    10    5    9 1
    11    1   11 1
    12    1   12 1
    13    2   13 1
    14    2   14 1
    15    3   15 1
    16    3   16 1
    17    4   17 1
    18    6   18 1
    19    6   19 1
    20    6   20 1
    21    7   21 1
    22    7   22 1
    23    7   23 1
    24   10   24 1
@<TRIPOS>SUBSTRUCTURE
     1 <0>         1 GROUP 0 A     ****
