@<TRIPOS>MOLECULE
AlkEthOH_r277
   27    27     1     0     0
SMALL
USER_CHARGES

@<TRIPOS>ATOM
      1 C1          0.6413    0.9324   -0.1690 CT        1 <0>       -0.10747
      2 C2         -0.0277   -1.3414    1.4670 CT        1 <0>        0.09976
      3 C3         -1.4329   -0.7867    1.3270 CT        1 <0>        0.10914
      4 C4          1.2744   -0.4667   -0.3822 CT        1 <0>        0.16355
      5 C5         -0.8980    1.0327   -0.1892 CT        1 <0>        0.35028
      6 C6          2.6938   -0.4909    0.2142 CT        1 <0>       -0.10438
      7 C7          1.4034   -0.7837   -1.8825 CT        1 <0>       -0.10438
      8 C8         -1.2883    2.5111   -0.3229 CT        1 <0>       -0.11708
      9 O1          0.5227   -1.5468    0.1730 OS        1 <0>       -0.40951
     10 O2         -1.4473    0.6109    1.0654 OS        1 <0>       -0.46058
     11 O3         -1.4413    0.3291   -1.3009 OH        1 <0>       -0.60478
     12 H1          0.9788    1.3266    0.8002 HC        1 <0>        0.06139
     13 H2          1.0636    1.6057   -0.9276 HC        1 <0>        0.06139
     14 H3          0.6098   -0.7071    2.0905 H1        1 <0>        0.05264
     15 H4         -0.0845   -2.3280    1.9380 H1        1 <0>        0.05264
     16 H5         -2.0013   -1.3120    0.5516 H1        1 <0>        0.05864
     17 H6         -1.9636   -0.9246    2.2748 H1        1 <0>        0.05864
     18 H7          3.1285   -1.4727    0.0605 HC        1 <0>        0.04530
     19 H8          2.6380   -0.2771    1.2761 HC        1 <0>        0.04530
     20 H9          3.3009    0.2601   -0.2796 HC        1 <0>        0.04530
     21 H10         1.8481   -1.7659   -2.0035 HC        1 <0>        0.04530
     22 H11         2.0338   -0.0365   -2.3529 HC        1 <0>        0.04530
     23 H12         0.4183   -0.7698   -2.3369 HC        1 <0>        0.04530
     24 H13        -2.3708    2.5992   -0.3387 HC        1 <0>        0.05231
     25 H14        -0.8785    2.9110   -1.2459 HC        1 <0>        0.05231
     26 H15        -0.8914    3.0675    0.5213 HC        1 <0>        0.05231
     27 H16        -2.4047    0.4331   -1.2519 HO        1 <0>        0.41138
@<TRIPOS>BOND
     1    1    4 1
     2    1    5 1
     3    2    3 1
     4    2    9 1
     5    3   10 1
     6    4    6 1
     7    4    7 1
     8    4    9 1
     9    5    8 1
    10    5   10 1
    11    5   11 1
    12    1   12 1
    13    1   13 1
    14    2   14 1
    15    2   15 1
    16    3   16 1
    17    3   17 1
    18    6   18 1
    19    6   19 1
    20    6   20 1
    21    7   21 1
    22    7   22 1
    23    7   23 1
    24    8   24 1
    25    8   25 1
    26    8   26 1
    27   11   27 1
@<TRIPOS>SUBSTRUCTURE
     1 <0>         1 GROUP 0 A     ****
