@<TRIPOS>MOLECULE
AlkEthOH_c363
   28    27     1     0     0
SMALL
USER_CHARGES

@<TRIPOS>ATOM
      1 C1         -1.3409   -0.8678    2.0077 CT        1 <0>       -0.09581
      2 C2         -1.9586   -2.3103    0.0652 CT        1 <0>       -0.09581
      3 C3          0.3076    1.7006   -1.8346 CT        1 <0>       -0.13142
      4 C4          2.4412    0.0403   -0.3762 CT        1 <0>       -0.12154
      5 C5          0.1737   -0.9896   -0.0693 CT        1 <0>       -0.10380
      6 C6         -1.2697   -1.0067    0.4872 CT        1 <0>       -0.06066
      7 C7          0.3965    1.5861   -0.3161 CT        1 <0>        0.15344
      8 C8          1.0327    0.2717    0.1986 CT        1 <0>        0.16055
      9 O1          1.1664    2.6933    0.1658 OH        1 <0>       -0.58365
     10 O2          1.2004    0.3908    1.6186 OH        1 <0>       -0.58302
     11 H1         -0.7859   -1.6660    2.5083 HC        1 <0>        0.03669
     12 H2         -2.3769   -0.8905    2.3619 HC        1 <0>        0.03669
     13 H3         -0.8951    0.0785    2.3329 HC        1 <0>        0.03669
     14 H4         -1.4354   -3.1791    0.4790 HC        1 <0>        0.03669
     15 H5         -1.9789   -2.4143   -1.0252 HC        1 <0>        0.03669
     16 H6         -2.9912   -2.3413    0.4292 HC        1 <0>        0.03669
     17 H7          1.3023    1.5822   -2.2792 HC        1 <0>        0.04378
     18 H8         -0.3116    0.9042   -2.2599 HC        1 <0>        0.04378
     19 H9         -0.0899    2.6671   -2.1542 HC        1 <0>        0.04378
     20 H10         3.0965    0.9018   -0.2162 HC        1 <0>        0.04675
     21 H11         2.3899   -0.1520   -1.4547 HC        1 <0>        0.04675
     22 H12         2.9149   -0.8440    0.0641 HC        1 <0>        0.04675
     23 H13         0.1209   -1.1520   -1.1541 HC        1 <0>        0.04445
     24 H14         0.7007   -1.8612    0.3445 HC        1 <0>        0.04445
     25 H15        -1.8406   -0.1841    0.0419 HC        1 <0>        0.04556
     26 H16        -0.6016    1.7056    0.1197 H1        1 <0>        0.04438
     27 H17         0.6910    3.4910   -0.1070 HO        1 <0>        0.39548
     28 H18         1.5909   -0.4439    1.9119 HO        1 <0>        0.39567
@<TRIPOS>BOND
     1    1    6 1
     2    2    6 1
     3    3    7 1
     4    4    8 1
     5    5    6 1
     6    5    8 1
     7    7    8 1
     8    7    9 1
     9    8   10 1
    10    1   11 1
    11    1   12 1
    12    1   13 1
    13    2   14 1
    14    2   15 1
    15    2   16 1
    16    3   17 1
    17    3   18 1
    18    3   19 1
    19    4   20 1
    20    4   21 1
    21    4   22 1
    22    5   23 1
    23    5   24 1
    24    6   25 1
    25    7   26 1
    26    9   27 1
    27   10   28 1
@<TRIPOS>SUBSTRUCTURE
     1 <0>         1 GROUP 0 A     ****
