@<TRIPOS>MOLECULE
AlkEthOH_r693
   33    33     1     0     0
SMALL
USER_CHARGES

@<TRIPOS>ATOM
      1 C1          2.4447    1.2571    0.2522 CT        1 <0>       -0.06595
      2 C2          1.9045    0.0821    1.0784 CT        1 <0>       -0.06347
      3 C3          2.3526    1.0886   -1.2715 CT        1 <0>       -0.07882
      4 C4          0.4772    0.3209    1.6027 CT        1 <0>       -0.12130
      5 C5          1.1126    0.3700   -1.7876 CT        1 <0>        0.13715
      6 C6         -0.5600   -0.7833    1.3099 CT        1 <0>        0.36113
      7 C7         -1.1327    0.0377   -0.9817 CT        1 <0>        0.35862
      8 C8         -0.1058   -2.1223    1.9087 CT        1 <0>       -0.11654
      9 C9         -2.3247    0.8732   -0.4992 CT        1 <0>       -0.10223
     10 C10        -1.5570   -0.6387   -2.2976 CT        1 <0>       -0.10223
     11 O1         -0.0548    0.9546   -1.2226 OS        1 <0>       -0.44608
     12 O2         -0.7908   -1.0287   -0.0817 OS        1 <0>       -0.44145
     13 O3         -1.7658   -0.4111    1.9901 OH        1 <0>       -0.62568
     14 H1          1.9518    2.1918    0.5460 HC        1 <0>        0.03993
     15 H2          3.5053    1.3988    0.4980 HC        1 <0>        0.03993
     16 H3          2.0011   -0.8557    0.5246 HC        1 <0>        0.04142
     17 H4          2.5540   -0.0291    1.9570 HC        1 <0>        0.04142
     18 H5          2.4023    2.0889   -1.7195 HC        1 <0>        0.04199
     19 H6          3.2372    0.5464   -1.6276 HC        1 <0>        0.04199
     20 H7          0.5356    0.4514    2.6932 HC        1 <0>        0.05679
     21 H8          0.0896    1.2828    1.2501 HC        1 <0>        0.05679
     22 H9          1.0584    0.4673   -2.8774 H1        1 <0>        0.03401
     23 H10         1.1897   -0.6978   -1.5559 H1        1 <0>        0.03401
     24 H11        -0.8481   -2.8849    1.6920 HC        1 <0>        0.05091
     25 H12         0.0042   -2.0179    2.9840 HC        1 <0>        0.05091
     26 H13         0.8467   -2.4082    1.4722 HC        1 <0>        0.05091
     27 H14        -2.0662    1.3701    0.4320 HC        1 <0>        0.05329
     28 H15        -3.1808    0.2240   -0.3370 HC        1 <0>        0.05329
     29 H16        -2.5729    1.6186   -1.2500 HC        1 <0>        0.05329
     30 H17        -0.7356   -1.2410   -2.6707 HC        1 <0>        0.05329
     31 H18        -1.8113    0.1243   -3.0255 HC        1 <0>        0.05329
     32 H19        -2.4195   -1.2702   -2.1126 HC        1 <0>        0.05329
     33 H20        -1.5388   -0.3601    2.9291 HO        1 <0>        0.40610
@<TRIPOS>BOND
     1    1    2 1
     2    1    3 1
     3    2    4 1
     4    3    5 1
     5    4    6 1
     6    5   11 1
     7    6    8 1
     8    6   12 1
     9    6   13 1
    10    7    9 1
    11    7   10 1
    12    7   11 1
    13    7   12 1
    14    1   14 1
    15    1   15 1
    16    2   16 1
    17    2   17 1
    18    3   18 1
    19    3   19 1
    20    4   20 1
    21    4   21 1
    22    5   22 1
    23    5   23 1
    24    8   24 1
    25    8   25 1
    26    8   26 1
    27    9   27 1
    28    9   28 1
    29    9   29 1
    30   10   30 1
    31   10   31 1
    32   10   32 1
    33   13   33 1
@<TRIPOS>SUBSTRUCTURE
     1 <0>         1 GROUP 0 A     ****
