@<TRIPOS>MOLECULE
AlkEthOH_r1000
   22    22     1     0     0
SMALL
USER_CHARGES

@<TRIPOS>ATOM
      1 C1         -0.7744   -1.4993    0.0365 CT        1 <0>       -0.10990
      2 C2         -0.6239   -1.0543    1.4752 CT        1 <0>        0.12522
      3 C3         -0.6917   -0.1800   -0.7049 CT        1 <0>       -0.08904
      4 C4          0.3676    0.5798    0.1117 CT        1 <0>        0.14896
      5 C5         -0.4236   -0.3365   -2.1927 CT        1 <0>       -0.08265
      6 C6          0.1300    2.0893    0.0864 CT        1 <0>       -0.09618
      7 C7          1.8174    0.2792   -0.2847 CT        1 <0>       -0.09618
      8 O1          0.1986    0.1218    1.4725 OS        1 <0>       -0.42756
      9 H1          0.0546   -2.1602   -0.2424 HC        1 <0>        0.05429
     10 H2         -1.7089   -2.0405   -0.1380 HC        1 <0>        0.05429
     11 H3         -1.5921   -0.7808    1.9076 H1        1 <0>        0.04499
     12 H4         -0.1655   -1.8215    2.1055 H1        1 <0>        0.04499
     13 H5         -1.6618    0.3240   -0.5879 HC        1 <0>        0.05830
     14 H6          0.5341   -0.8346   -2.3524 HC        1 <0>        0.03805
     15 H7         -0.3948    0.6421   -2.6750 HC        1 <0>        0.03805
     16 H8         -1.2110   -0.9331   -2.6564 HC        1 <0>        0.03805
     17 H9          0.8966    2.5924    0.6729 HC        1 <0>        0.04272
     18 H10        -0.8479    2.3151    0.5075 HC        1 <0>        0.04272
     19 H11         0.1698    2.4510   -0.9394 HC        1 <0>        0.04272
     20 H12         2.4927    0.8568    0.3412 HC        1 <0>        0.04272
     21 H13         1.9726    0.5474   -1.3265 HC        1 <0>        0.04272
     22 H14         2.0187   -0.7806   -0.1508 HC        1 <0>        0.04272
@<TRIPOS>BOND
     1    1    2 1
     2    1    3 1
     3    2    8 1
     4    3    4 1
     5    3    5 1
     6    4    6 1
     7    4    7 1
     8    4    8 1
     9    1    9 1
    10    1   10 1
    11    2   11 1
    12    2   12 1
    13    3   13 1
    14    5   14 1
    15    5   15 1
    16    5   16 1
    17    6   17 1
    18    6   18 1
    19    6   19 1
    20    7   20 1
    21    7   21 1
    22    7   22 1
@<TRIPOS>SUBSTRUCTURE
     1 <0>         1 GROUP 0 A     ****
