@<TRIPOS>MOLECULE
AlkEthOH_c718
   22    21     1     0     0
SMALL
USER_CHARGES

@<TRIPOS>ATOM
      1 C1          0.7680   -0.6102   -0.7743 CT        1 <0>       -0.13008
      2 C2          5.3603    5.1888   -0.8247 CT        1 <0>        0.11682
      3 C3          3.7097    1.9169   -0.4603 CT        1 <0>       -0.08073
      4 C4          2.3001    1.3971   -0.7488 CT        1 <0>       -0.07146
      5 C5          3.8442    3.3933   -0.8071 CT        1 <0>        0.12828
      6 C6          2.1634   -0.0981   -0.4438 CT        1 <0>        0.14017
      7 O1          3.1143   -0.8418   -1.2011 OH        1 <0>       -0.59925
      8 O2          5.1659    3.8179   -0.5039 OS        1 <0>       -0.42086
      9 H1          0.5261   -0.4410   -1.8294 HC        1 <0>        0.04261
     10 H2          0.0083   -0.1203   -0.1578 HC        1 <0>        0.04261
     11 H3          0.7093   -1.6913   -0.6078 HC        1 <0>        0.04261
     12 H4          6.3846    5.4795   -0.5790 H1        1 <0>        0.03147
     13 H5          4.6515    5.8000   -0.2604 H1        1 <0>        0.03147
     14 H6          5.1902    5.3312   -1.8945 H1        1 <0>        0.03147
     15 H7          4.4553    1.3454   -1.0265 HC        1 <0>        0.06369
     16 H8          3.9585    1.7691    0.5980 HC        1 <0>        0.06369
     17 H9          1.5736    1.9609   -0.1511 HC        1 <0>        0.04658
     18 H10         2.0697    1.5801   -1.8060 HC        1 <0>        0.04658
     19 H11         3.1421    3.9973   -0.2235 H1        1 <0>        0.02284
     20 H12         3.6600    3.5625   -1.8728 H1        1 <0>        0.02284
     21 H13         2.3714   -0.2830    0.6157 H1        1 <0>        0.03066
     22 H14         3.0097   -1.7701   -0.9409 HO        1 <0>        0.39799
@<TRIPOS>BOND
     1    1    6 1
     2    2    8 1
     3    3    4 1
     4    3    5 1
     5    4    6 1
     6    5    8 1
     7    6    7 1
     8    1    9 1
     9    1   10 1
    10    1   11 1
    11    2   12 1
    12    2   13 1
    13    2   14 1
    14    3   15 1
    15    3   16 1
    16    4   17 1
    17    4   18 1
    18    5   19 1
    19    5   20 1
    20    6   21 1
    21    7   22 1
@<TRIPOS>SUBSTRUCTURE
     1 <0>         1 GROUP 0 A     ****
