@<TRIPOS>MOLECULE
AlkEthOH_c671
   31    30     1     0     0
SMALL
USER_CHARGES

@<TRIPOS>ATOM
      1 C1         -0.4671    0.3459   -2.9314 CT        1 <0>       -0.13242
      2 C2         -1.8946    3.7055   -3.1110 CT        1 <0>       -0.10726
      3 C3         -4.5871    0.8497   -1.6437 CT        1 <0>       -0.10762
      4 C4         -5.9310    2.9041   -1.1120 CT        1 <0>       -0.10762
      5 C5         -5.0297    2.5650   -3.4316 CT        1 <0>       -0.10762
      6 C6         -1.4311    2.0113   -1.3010 CT        1 <0>       -0.08979
      7 C7         -0.1572    1.4998   -1.9864 CT        1 <0>        0.14177
      8 C8         -2.4683    2.5565   -2.2917 CT        1 <0>        0.13936
      9 C9         -4.7816    2.3358   -1.9414 CT        1 <0>        0.15241
     10 O1          0.7569    1.0457   -0.9923 OH        1 <0>       -0.60063
     11 O2         -3.6005    3.0297   -1.5678 OS        1 <0>       -0.42029
     12 H1         -0.9508   -0.4819   -2.4038 HC        1 <0>        0.04180
     13 H2          0.4460   -0.0262   -3.4090 HC        1 <0>        0.04180
     14 H3         -1.1300    0.6785   -3.7376 HC        1 <0>        0.04180
     15 H4         -1.5520    4.5113   -2.4530 HC        1 <0>        0.04182
     16 H5         -1.0222    3.3788   -3.6878 HC        1 <0>        0.04182
     17 H6         -2.6398    4.1135   -3.8005 HC        1 <0>        0.04182
     18 H7         -3.7629    0.4380   -2.2371 HC        1 <0>        0.04286
     19 H8         -4.3737    0.6752   -0.5841 HC        1 <0>        0.04286
     20 H9         -5.4806    0.2762   -1.9159 HC        1 <0>        0.04286
     21 H10        -6.0741    3.9701   -1.3224 HC        1 <0>        0.04286
     22 H11        -5.7142    2.8274   -0.0404 HC        1 <0>        0.04286
     23 H12        -6.8717    2.3816   -1.3137 HC        1 <0>        0.04286
     24 H13        -5.1692    3.6308   -3.6454 HC        1 <0>        0.04286
     25 H14        -4.1977    2.1964   -4.0404 HC        1 <0>        0.04286
     26 H15        -5.9479    2.0618   -3.7557 HC        1 <0>        0.04286
     27 H16        -1.8746    1.1871   -0.7281 HC        1 <0>        0.06604
     28 H17        -1.1685    2.8096   -0.5953 HC        1 <0>        0.06604
     29 H18         0.3250    2.3088   -2.5459 H1        1 <0>        0.03129
     30 H19        -2.8051    1.7614   -2.9658 H1        1 <0>        0.04158
     31 H20         1.5534    0.7530   -1.4619 HO        1 <0>        0.39816
@<TRIPOS>BOND
     1    1    7 1
     2    2    8 1
     3    3    9 1
     4    4    9 1
     5    5    9 1
     6    6    7 1
     7    6    8 1
     8    7   10 1
     9    8   11 1
    10    9   11 1
    11    1   12 1
    12    1   13 1
    13    1   14 1
    14    2   15 1
    15    2   16 1
    16    2   17 1
    17    3   18 1
    18    3   19 1
    19    3   20 1
    20    4   21 1
    21    4   22 1
    22    4   23 1
    23    5   24 1
    24    5   25 1
    25    5   26 1
    26    6   27 1
    27    6   28 1
    28    7   29 1
    29    8   30 1
    30   10   31 1
@<TRIPOS>SUBSTRUCTURE
     1 <0>         1 GROUP 0 A     ****
