@<TRIPOS>MOLECULE
AlkEthOH_r41
   27    27     1     0     0
SMALL
USER_CHARGES

@<TRIPOS>ATOM
      1 C1         -0.6916    1.3616    1.7299 CT        1 <0>       -0.07408
      2 C2         -1.0086   -0.0813    2.1225 CT        1 <0>       -0.06717
      3 C3          0.7873    1.6869    1.4961 CT        1 <0>       -0.10063
      4 C4         -0.5209   -1.2189    1.2281 CT        1 <0>       -0.11945
      5 C5         -0.8137   -0.2855   -1.2125 CT        1 <0>       -0.12514
      6 C6          1.2021    1.6515    0.0263 CT        1 <0>        0.13672
      7 C7         -1.1725   -1.3372   -0.1539 CT        1 <0>        0.15417
      8 C8          0.6860   -0.1351   -1.5091 CT        1 <0>        0.34172
      9 O1          1.4454    0.3146   -0.3899 OS        1 <0>       -0.42045
     10 O2         -0.8092   -2.6256   -0.6676 OH        1 <0>       -0.61273
     11 O3          0.8957    0.6689   -2.6699 OH        1 <0>       -0.63155
     12 H1         -1.3067    1.6819    0.8850 HC        1 <0>        0.03676
     13 H2         -1.0296    1.9849    2.5700 HC        1 <0>        0.03676
     14 H3         -0.5866   -0.2508    3.1224 HC        1 <0>        0.03660
     15 H4         -2.0958   -0.1714    2.2442 HC        1 <0>        0.03660
     16 H5          0.9565    2.7106    1.8533 HC        1 <0>        0.05068
     17 H6          1.4234    1.0259    2.0958 HC        1 <0>        0.05068
     18 H7          0.5708   -1.2296    1.1617 HC        1 <0>        0.05860
     19 H8         -0.7453   -2.1528    1.7651 HC        1 <0>        0.05860
     20 H9         -1.3056   -0.5628   -2.1553 HC        1 <0>        0.06258
     21 H10        -1.2486    0.6802   -0.9469 HC        1 <0>        0.06258
     22 H11         0.4758    2.1748   -0.6056 H1        1 <0>        0.05037
     23 H12         2.1542    2.1834   -0.0782 H1        1 <0>        0.05037
     24 H13        -2.2619   -1.3493   -0.0280 H1        1 <0>        0.03081
     25 H14         1.0859   -1.1424   -1.7537 H2        1 <0>        0.08214
     26 H15        -1.1576   -3.2725   -0.0384 HO        1 <0>        0.40180
     27 H16         0.4514    0.2148   -3.4017 HO        1 <0>        0.41266
@<TRIPOS>BOND
     1    1    2 1
     2    1    3 1
     3    2    4 1
     4    3    6 1
     5    4    7 1
     6    5    7 1
     7    5    8 1
     8    6    9 1
     9    7   10 1
    10    8    9 1
    11    8   11 1
    12    1   12 1
    13    1   13 1
    14    2   14 1
    15    2   15 1
    16    3   16 1
    17    3   17 1
    18    4   18 1
    19    4   19 1
    20    5   20 1
    21    5   21 1
    22    6   22 1
    23    6   23 1
    24    7   24 1
    25    8   25 1
    26   10   26 1
    27   11   27 1
@<TRIPOS>SUBSTRUCTURE
     1 <0>         1 GROUP 0 A     ****
