@<TRIPOS>MOLECULE
AlkEthOH_r855
   23    23     1     0     0
SMALL
USER_CHARGES

@<TRIPOS>ATOM
      1 C1          0.4876    1.6901   -0.7231 CT        1 <0>       -0.07426
      2 C2         -0.9235    1.5780   -0.1591 CT        1 <0>       -0.10794
      3 C3          1.4322    0.7560    0.0288 CT        1 <0>       -0.12823
      4 C4         -1.3743    0.1177   -0.1276 CT        1 <0>        0.14549
      5 C5          0.8827   -0.6767    0.0750 CT        1 <0>        0.34585
      6 C6         -2.7356   -0.0185    0.5416 CT        1 <0>       -0.09245
      7 C7          1.7485   -1.5384    0.9942 CT        1 <0>       -0.11205
      8 O1         -0.4458   -0.6806    0.6131 OS        1 <0>       -0.40582
      9 O2          0.9281   -1.2276   -1.2429 OH        1 <0>       -0.61820
     10 H1          0.4804    1.4334   -1.7893 HC        1 <0>        0.04585
     11 H2          0.8423    2.7238   -0.6444 HC        1 <0>        0.04585
     12 H3         -0.9229    1.9873    0.8592 HC        1 <0>        0.04951
     13 H4         -1.6152    2.1828   -0.7560 HC        1 <0>        0.04951
     14 H5          2.4163    0.7780   -0.4540 HC        1 <0>        0.05194
     15 H6          1.5495    1.1410    1.0498 HC        1 <0>        0.05194
     16 H7         -1.4501   -0.2781   -1.1478 H1        1 <0>        0.05919
     17 H8         -2.6913    0.3678    1.5602 HC        1 <0>        0.04423
     18 H9         -3.0323   -1.0671    0.5742 HC        1 <0>        0.04423
     19 H10        -3.4843    0.5435   -0.0172 HC        1 <0>        0.04423
     20 H11         1.3559   -2.5530    1.0243 HC        1 <0>        0.05176
     21 H12         1.7434   -1.1229    2.0000 HC        1 <0>        0.05176
     22 H13         2.7707   -1.5612    0.6215 HC        1 <0>        0.05176
     23 H14         1.8588   -1.2150   -1.5114 HO        1 <0>        0.40585
@<TRIPOS>BOND
     1    1    2 1
     2    1    3 1
     3    2    4 1
     4    3    5 1
     5    4    6 1
     6    4    8 1
     7    5    7 1
     8    5    8 1
     9    5    9 1
    10    1   10 1
    11    1   11 1
    12    2   12 1
    13    2   13 1
    14    3   14 1
    15    3   15 1
    16    4   16 1
    17    6   17 1
    18    6   18 1
    19    6   19 1
    20    7   20 1
    21    7   21 1
    22    7   22 1
    23    9   23 1
@<TRIPOS>SUBSTRUCTURE
     1 <0>         1 GROUP 0 A     ****
