@<TRIPOS>MOLECULE
AlkEthOH_r89
   27    27     1     0     0
SMALL
USER_CHARGES

@<TRIPOS>ATOM
      1 C1          1.5582   -1.1069   -1.3468 CT        1 <0>       -0.06213
      2 C2          0.3023   -0.7509   -2.1458 CT        1 <0>       -0.11262
      3 C3          1.5308   -0.9401    0.1742 CT        1 <0>       -0.12330
      4 C4          0.3368    1.4012    0.4542 CT        1 <0>       -0.10379
      5 C5         -0.9708   -1.4609   -1.6916 CT        1 <0>        0.13214
      6 C6         -1.8342    0.1615   -0.1640 CT        1 <0>        0.09653
      7 C7          1.5434    0.4919    0.7155 CT        1 <0>        0.15486
      8 C8         -1.0393    0.8922    0.9211 CT        1 <0>        0.12062
      9 O1         -1.3318   -1.1519   -0.3523 OS        1 <0>       -0.41678
     10 O2          1.7056    0.4183    2.1389 OH        1 <0>       -0.60035
     11 O3         -1.8011    2.0455    1.2967 OH        1 <0>       -0.59013
     12 H1          1.7924   -2.1595   -1.5552 HC        1 <0>        0.03901
     13 H2          2.4000   -0.5304   -1.7508 HC        1 <0>        0.03901
     14 H3          0.1587    0.3307   -2.1465 HC        1 <0>        0.04582
     15 H4          0.4841   -1.0220   -3.1938 HC        1 <0>        0.04582
     16 H5          0.7339   -1.5280    0.6388 HC        1 <0>        0.05892
     17 H6          2.4429   -1.4248    0.5545 HC        1 <0>        0.05892
     18 H7          0.5334    2.3424    0.9888 HC        1 <0>        0.05519
     19 H8          0.2972    1.6973   -0.5977 HC        1 <0>        0.05519
     20 H9         -1.8059   -1.2260   -2.3620 H1        1 <0>        0.04737
     21 H10        -0.8174   -2.5444   -1.7421 H1        1 <0>        0.04737
     22 H11        -2.8780    0.0588    0.1558 H1        1 <0>        0.04562
     23 H12        -1.8663    0.7470   -1.0914 H1        1 <0>        0.04562
     24 H13         2.4360    1.0016    0.3302 H1        1 <0>        0.02514
     25 H14        -0.9281    0.2646    1.8118 H1        1 <0>        0.10788
     26 H15         2.5480   -0.0325    2.2884 HO        1 <0>        0.39860
     27 H16        -1.8632    2.5971    0.5038 HO        1 <0>        0.38947
@<TRIPOS>BOND
     1    1    2 1
     2    1    3 1
     3    2    5 1
     4    3    7 1
     5    4    7 1
     6    4    8 1
     7    5    9 1
     8    6    8 1
     9    6    9 1
    10    7   10 1
    11    8   11 1
    12    1   12 1
    13    1   13 1
    14    2   14 1
    15    2   15 1
    16    3   16 1
    17    3   17 1
    18    4   18 1
    19    4   19 1
    20    5   20 1
    21    5   21 1
    22    6   22 1
    23    6   23 1
    24    7   24 1
    25    8   25 1
    26   10   26 1
    27   11   27 1
@<TRIPOS>SUBSTRUCTURE
     1 <0>         1 GROUP 0 A     ****
