@<TRIPOS>MOLECULE
AlkEthOH_c1049
   33    32     1     0     0
SMALL
USER_CHARGES

@<TRIPOS>ATOM
      1 C1          0.0293    2.0988    2.9745 CT        1 <0>       -0.09314
      2 C2          1.9264    0.3689   -1.0559 CT        1 <0>       -0.08531
      3 C3          1.2292   -1.9292   -0.4442 CT        1 <0>       -0.08531
      4 C4          1.1093   -1.1761   -2.8309 CT        1 <0>       -0.08531
      5 C5         -2.6926    0.1619    0.1187 CT        1 <0>       -0.12772
      6 C6         -0.5530    1.6674    1.6364 CT        1 <0>       -0.07792
      7 C7         -0.5795    0.1426    1.5093 CT        1 <0>       -0.10312
      8 C8         -0.5222   -0.1576   -1.0974 CT        1 <0>       -0.05390
      9 C9          0.8999   -0.7468   -1.3721 CT        1 <0>       -0.04349
     10 C10        -1.2661   -0.4055    0.2430 CT        1 <0>        0.15983
     11 O1         -1.4197   -1.8213    0.4120 OH        1 <0>       -0.60098
     12 H1          1.0473    1.7167    3.1010 HC        1 <0>        0.03378
     13 H2         -0.5827    1.7133    3.7960 HC        1 <0>        0.03378
     14 H3          0.0583    3.1899    3.0564 HC        1 <0>        0.03378
     15 H4          1.7552    1.2519   -1.6823 HC        1 <0>        0.03427
     16 H5          1.8623    0.6865   -0.0087 HC        1 <0>        0.03427
     17 H6          2.9524    0.0262   -1.2323 HC        1 <0>        0.03427
     18 H7          0.5377   -2.7637   -0.6127 HC        1 <0>        0.03427
     19 H8          2.2419   -2.3057   -0.6250 HC        1 <0>        0.03427
     20 H9          1.1466   -1.6682    0.6122 HC        1 <0>        0.03427
     21 H10         0.4134   -1.9673   -3.1261 HC        1 <0>        0.03427
     22 H11         0.9833   -0.3300   -3.5153 HC        1 <0>        0.03427
     23 H12         2.1208   -1.5711   -2.9835 HC        1 <0>        0.03427
     24 H13        -3.1903   -0.2220   -0.7794 HC        1 <0>        0.04219
     25 H14        -2.6688    1.2528    0.0115 HC        1 <0>        0.04219
     26 H15        -3.3105   -0.0813    0.9884 HC        1 <0>        0.04219
     27 H16        -1.5680    2.0705    1.5533 HC        1 <0>        0.04106
     28 H17         0.0385    2.1170    0.8342 HC        1 <0>        0.04106
     29 H18         0.4328   -0.2679    1.5858 HC        1 <0>        0.04636
     30 H19        -1.0926   -0.2673    2.3914 HC        1 <0>        0.04636
     31 H20        -0.4873    0.9235   -1.2895 HC        1 <0>        0.04606
     32 H21        -1.1778   -0.5695   -1.8802 HC        1 <0>        0.04606
     33 H22        -1.9404   -1.9393    1.2185 HO        1 <0>        0.39307
@<TRIPOS>BOND
     1    1    6 1
     2    2    9 1
     3    3    9 1
     4    4    9 1
     5    5   10 1
     6    6    7 1
     7    7   10 1
     8    8    9 1
     9    8   10 1
    10   10   11 1
    11    1   12 1
    12    1   13 1
    13    1   14 1
    14    2   15 1
    15    2   16 1
    16    2   17 1
    17    3   18 1
    18    3   19 1
    19    3   20 1
    20    4   21 1
    21    4   22 1
    22    4   23 1
    23    5   24 1
    24    5   25 1
    25    5   26 1
    26    6   27 1
    27    6   28 1
    28    7   29 1
    29    7   30 1
    30    8   31 1
    31    8   32 1
    32   11   33 1
@<TRIPOS>SUBSTRUCTURE
     1 <0>         1 GROUP 0 A     ****
