@<TRIPOS>MOLECULE
AlkEthOH_c605
   33    32     1     0     0
SMALL
USER_CHARGES

@<TRIPOS>ATOM
      1 C1         -0.1826   -2.4816   -2.6368 CT        1 <0>       -0.13069
      2 C2          0.2899    1.6578    2.3527 CT        1 <0>       -0.08886
      3 C3         -1.8333    1.0191    1.2328 CT        1 <0>       -0.08886
      4 C4         -0.4349   -0.7170    2.3414 CT        1 <0>       -0.08886
      5 C5          1.8783   -0.1257    0.3685 CT        1 <0>       -0.08907
      6 C6          0.5065    1.6353   -0.7241 CT        1 <0>       -0.08907
      7 C7         -0.2815   -0.8022   -0.7556 CT        1 <0>       -0.07004
      8 C8          0.2997   -1.1192   -2.1468 CT        1 <0>        0.13972
      9 C9         -0.3723    0.5653    1.4756 CT        1 <0>       -0.04311
     10 C10         0.4190    0.3242    0.0928 CT        1 <0>       -0.02713
     11 O1         -0.1420   -0.1389   -3.0823 OH        1 <0>       -0.60237
     12 H1         -1.2753   -2.5308   -2.6652 HC        1 <0>        0.04195
     13 H2          0.2065   -2.6984   -3.6379 HC        1 <0>        0.04195
     14 H3          0.1825   -3.2774   -1.9785 HC        1 <0>        0.04195
     15 H4          1.3340    1.4278    2.5820 HC        1 <0>        0.03386
     16 H5          0.2848    2.6273    1.8393 HC        1 <0>        0.03386
     17 H6         -0.2459    1.8043    3.2960 HC        1 <0>        0.03386
     18 H7         -2.3913    0.3082    0.6175 HC        1 <0>        0.03386
     19 H8         -2.3767    1.1118    2.1811 HC        1 <0>        0.03386
     20 H9         -1.8792    1.9997    0.7484 HC        1 <0>        0.03386
     21 H10        -0.8916   -1.5522    1.8023 HC        1 <0>        0.03386
     22 H11        -0.9961   -0.5576    3.2677 HC        1 <0>        0.03386
     23 H12         0.5708   -1.0392    2.6380 HC        1 <0>        0.03386
     24 H13         1.9165   -1.0536    0.9464 HC        1 <0>        0.03594
     25 H14         2.4310   -0.3023   -0.5596 HC        1 <0>        0.03594
     26 H15         2.4432    0.6384    0.9119 HC        1 <0>        0.03594
     27 H16        -0.4862    2.0280   -0.9657 HC        1 <0>        0.03594
     28 H17         1.0395    1.4849   -1.6696 HC        1 <0>        0.03594
     29 H18         1.0558    2.4157   -0.1901 HC        1 <0>        0.03594
     30 H19        -0.2596   -1.7290   -0.1686 HC        1 <0>        0.05248
     31 H20        -1.3353   -0.5380   -0.8971 HC        1 <0>        0.05248
     32 H21         1.3927   -1.1130   -2.1338 H1        1 <0>        0.03249
     33 H22         0.2541   -0.3734   -3.9359 HO        1 <0>        0.39466
@<TRIPOS>BOND
     1    1    8 1
     2    2    9 1
     3    3    9 1
     4    4    9 1
     5    5   10 1
     6    6   10 1
     7    7    8 1
     8    7   10 1
     9    8   11 1
    10    9   10 1
    11    1   12 1
    12    1   13 1
    13    1   14 1
    14    2   15 1
    15    2   16 1
    16    2   17 1
    17    3   18 1
    18    3   19 1
    19    3   20 1
    20    4   21 1
    21    4   22 1
    22    4   23 1
    23    5   24 1
    24    5   25 1
    25    5   26 1
    26    6   27 1
    27    6   28 1
    28    6   29 1
    29    7   30 1
    30    7   31 1
    31    8   32 1
    32   11   33 1
@<TRIPOS>SUBSTRUCTURE
     1 <0>         1 GROUP 0 A     ****
