@<TRIPOS>MOLECULE
AlkEthOH_r336
   24    24     1     0     0
SMALL
USER_CHARGES

@<TRIPOS>ATOM
      1 C1         -2.0425    0.8267    0.4881 CT        1 <0>       -0.07366
      2 C2         -1.7942   -0.6763    0.6184 CT        1 <0>       -0.07020
      3 C3         -0.8128    1.7105    0.6839 CT        1 <0>       -0.13417
      4 C4         -0.9345   -1.2303   -0.5176 CT        1 <0>       -0.13105
      5 C5          0.3862    1.3253   -0.1789 CT        1 <0>        0.34105
      6 C6          0.5846   -1.0787   -0.3152 CT        1 <0>        0.34716
      7 C7          1.1207   -2.2187    0.5580 CT        1 <0>       -0.11449
      8 O1          0.9545    0.1318    0.3435 OS        1 <0>       -0.38686
      9 O2          1.3375    2.3850   -0.0766 OH        1 <0>       -0.58322
     10 O3          1.2004   -1.1754   -1.6035 OH        1 <0>       -0.61740
     11 H1         -2.4815    1.0370   -0.4954 HC        1 <0>        0.04017
     12 H2         -2.7976    1.1212    1.2273 HC        1 <0>        0.04017
     13 H3         -1.3637   -0.9126    1.5975 HC        1 <0>        0.04847
     14 H4         -2.7704   -1.1758    0.5779 HC        1 <0>        0.04847
     15 H5         -1.0932    2.7522    0.4830 HC        1 <0>        0.05599
     16 H6         -0.5209    1.6749    1.7420 HC        1 <0>        0.05599
     17 H7         -1.1685   -2.2933   -0.6639 HC        1 <0>        0.05286
     18 H8         -1.2344   -0.7559   -1.4619 HC        1 <0>        0.05286
     19 H9          0.1089    1.2329   -1.2355 H2        1 <0>        0.05339
     20 H10         2.1926   -2.1001    0.6931 HC        1 <0>        0.05458
     21 H11         0.9210   -3.1716    0.0748 HC        1 <0>        0.05458
     22 H12         0.6299   -2.1956    1.5276 HC        1 <0>        0.05458
     23 H13         0.8953    3.1824   -0.4046 HO        1 <0>        0.40305
     24 H14         0.9662   -2.0484   -1.9501 HO        1 <0>        0.40768
@<TRIPOS>BOND
     1    1    2 1
     2    1    3 1
     3    2    4 1
     4    3    5 1
     5    4    6 1
     6    5    8 1
     7    5    9 1
     8    6    7 1
     9    6    8 1
    10    6   10 1
    11    1   11 1
    12    1   12 1
    13    2   13 1
    14    2   14 1
    15    3   15 1
    16    3   16 1
    17    4   17 1
    18    4   18 1
    19    5   19 1
    20    7   20 1
    21    7   21 1
    22    7   22 1
    23    9   23 1
    24   10   24 1
@<TRIPOS>SUBSTRUCTURE
     1 <0>         1 GROUP 0 A     ****
