@<TRIPOS>MOLECULE
AlkEthOH_r523
   21    21     1     0     0
SMALL
USER_CHARGES

@<TRIPOS>ATOM
      1 C1         -1.0804    1.1128    0.5272 CT        1 <0>       -0.14046
      2 C2         -1.8894   -0.1682    0.4169 CT        1 <0>        0.13747
      3 C3          0.1739    0.7669   -0.2568 CT        1 <0>        0.14127
      4 C4          0.3712   -0.7058    0.1370 CT        1 <0>        0.34795
      5 C5          1.3464    1.6906    0.0465 CT        1 <0>       -0.10778
      6 C6          1.1804   -1.5300   -0.8584 CT        1 <0>       -0.09833
      7 O1         -0.9631   -1.2466    0.2141 OS        1 <0>       -0.45300
      8 O2         -0.1263    0.8591   -1.6518 OH        1 <0>       -0.58955
      9 O3          0.9872   -0.7787    1.4253 OH        1 <0>       -0.62384
     10 H1         -1.6348    1.9688    0.1305 HC        1 <0>        0.06480
     11 H2         -0.8478    1.3087    1.5806 HC        1 <0>        0.06480
     12 H3         -2.4839   -0.3605    1.3146 H1        1 <0>        0.05279
     13 H4         -2.5634   -0.1417   -0.4456 H1        1 <0>        0.05279
     14 H5          2.2152    1.3960   -0.5423 HC        1 <0>        0.05172
     15 H6          1.6011    1.6346    1.1049 HC        1 <0>        0.05172
     16 H7          1.0842    2.7195   -0.2004 HC        1 <0>        0.05172
     17 H8          1.2720   -2.5564   -0.5038 HC        1 <0>        0.05650
     18 H9          2.1770   -1.1038   -0.9709 HC        1 <0>        0.05650
     19 H10         0.6845   -1.5330   -1.8287 HC        1 <0>        0.05650
     20 H11        -0.4035    1.7734   -1.8103 HO        1 <0>        0.40471
     21 H12         1.0883   -1.7209    1.6246 HO        1 <0>        0.42172
@<TRIPOS>BOND
     1    1    2 1
     2    1    3 1
     3    2    7 1
     4    3    4 1
     5    3    5 1
     6    3    8 1
     7    4    6 1
     8    4    7 1
     9    4    9 1
    10    1   10 1
    11    1   11 1
    12    2   12 1
    13    2   13 1
    14    5   14 1
    15    5   15 1
    16    5   16 1
    17    6   17 1
    18    6   18 1
    19    6   19 1
    20    8   20 1
    21    9   21 1
@<TRIPOS>SUBSTRUCTURE
     1 <0>         1 GROUP 0 A     ****
