@<TRIPOS>MOLECULE
AlkEthOH_r84
   21    21     1     0     0
SMALL
USER_CHARGES

@<TRIPOS>ATOM
      1 C1          1.8203   -0.8547    0.4163 CT        1 <0>       -0.07058
      2 C2          1.5358   -0.9048   -1.0903 CT        1 <0>       -0.10902
      3 C3          1.5209    0.4965    1.0736 CT        1 <0>       -0.10902
      4 C4          0.0732   -0.7180   -1.4821 CT        1 <0>        0.14739
      5 C5          0.1741    0.5489    1.7964 CT        1 <0>        0.14739
      6 C6         -1.2942    0.6621   -0.0954 CT        1 <0>        0.52423
      7 O1         -0.3516    0.6053   -1.1688 OS        1 <0>       -0.47456
      8 O2         -0.8982   -0.0479    1.0785 OS        1 <0>       -0.47456
      9 O3         -2.5804    0.2126   -0.5284 OH        1 <0>       -0.61383
     10 H1          1.2912   -1.6666    0.9290 HC        1 <0>        0.04291
     11 H2          2.8911   -1.0596    0.5448 HC        1 <0>        0.04291
     12 H3          2.1406   -0.1333   -1.5832 HC        1 <0>        0.05257
     13 H4          1.8781   -1.8735   -1.4735 HC        1 <0>        0.05257
     14 H5          2.3000    0.7143    1.8152 HC        1 <0>        0.05257
     15 H6          1.5848    1.3021    0.3333 HC        1 <0>        0.05257
     16 H7         -0.0157   -0.8310   -2.5680 H1        1 <0>        0.04894
     17 H8         -0.5630   -1.4849   -1.0248 H1        1 <0>        0.04894
     18 H9          0.2616   -0.0088    2.7357 H1        1 <0>        0.04894
     19 H10        -0.0808    1.5799    2.0678 H1        1 <0>        0.04894
     20 H11        -1.4079    1.7218    0.1627 H3        1 <0>        0.11189
     21 H12        -3.1643    0.2771    0.2417 HO        1 <0>        0.42881
@<TRIPOS>BOND
     1    1    2 1
     2    1    3 1
     3    2    4 1
     4    3    5 1
     5    4    7 1
     6    5    8 1
     7    6    7 1
     8    6    8 1
     9    6    9 1
    10    1   10 1
    11    1   11 1
    12    2   12 1
    13    2   13 1
    14    3   14 1
    15    3   15 1
    16    4   16 1
    17    4   17 1
    18    5   18 1
    19    5   19 1
    20    6   20 1
    21    9   21 1
@<TRIPOS>SUBSTRUCTURE
     1 <0>         1 GROUP 0 A     ****
