@<TRIPOS>MOLECULE
AlkEthOH_r240
   21    21     1     0     0
SMALL
USER_CHARGES

@<TRIPOS>ATOM
      1 C1         -1.5878    0.6012    0.6458 CT        1 <0>       -0.10997
      2 C2          0.7885   -0.1674    0.7726 CT        1 <0>       -0.16357
      3 C3         -1.4401    0.6133   -0.8673 CT        1 <0>        0.13433
      4 C4         -0.6363   -0.4127    1.2695 CT        1 <0>        0.14696
      5 C5          0.8423   -0.1117   -0.7599 CT        1 <0>        0.34794
      6 C6          2.2360    0.3163   -1.2188 CT        1 <0>       -0.11648
      7 O1         -0.0880    0.8627   -1.2515 OS        1 <0>       -0.40351
      8 O2         -0.6864   -0.2848    2.6851 OH        1 <0>       -0.59769
      9 O3          0.5719   -1.4168   -1.2754 OH        1 <0>       -0.61913
     10 H1         -1.3611    1.5981    1.0459 HC        1 <0>        0.06400
     11 H2         -2.6224    0.3824    0.9336 HC        1 <0>        0.06400
     12 H3          1.1473    0.7786    1.2000 HC        1 <0>        0.05919
     13 H4          1.4452   -0.9565    1.1601 HC        1 <0>        0.05919
     14 H5         -1.7797   -0.3308   -1.3083 H1        1 <0>        0.05964
     15 H6         -2.0570    1.4112   -1.2931 H1        1 <0>        0.05964
     16 H7         -0.9590   -1.4286    1.0130 H1        1 <0>        0.04519
     17 H8          2.2698    0.3545   -2.3060 HC        1 <0>        0.05440
     18 H9          2.9760   -0.3981   -0.8630 HC        1 <0>        0.05440
     19 H10         2.4686    1.3015   -0.8189 HC        1 <0>        0.05440
     20 H11        -0.0710   -0.9426    3.0468 HO        1 <0>        0.39809
     21 H12         1.2597   -1.9983   -0.9190 HO        1 <0>        0.40898
@<TRIPOS>BOND
     1    1    3 1
     2    1    4 1
     3    2    4 1
     4    2    5 1
     5    3    7 1
     6    4    8 1
     7    5    6 1
     8    5    7 1
     9    5    9 1
    10    1   10 1
    11    1   11 1
    12    2   12 1
    13    2   13 1
    14    3   14 1
    15    3   15 1
    16    4   16 1
    17    6   17 1
    18    6   18 1
    19    6   19 1
    20    8   20 1
    21    9   21 1
@<TRIPOS>SUBSTRUCTURE
     1 <0>         1 GROUP 0 A     ****
