@<TRIPOS>MOLECULE
AlkEthOH_c965
   23    22     1     0     0
SMALL
USER_CHARGES

@<TRIPOS>ATOM
      1 C1          1.7017   -1.1626   -1.4864 CT        1 <0>       -0.09192
      2 C2         -1.1564   -1.1299    0.9585 CT        1 <0>       -0.08950
      3 C3         -2.1226    0.8280   -0.2656 CT        1 <0>       -0.08950
      4 C4          0.5704    1.4923    1.1226 CT        1 <0>       -0.09065
      5 C5          1.6568   -0.3175   -0.2214 CT        1 <0>       -0.07719
      6 C6         -0.9367   -0.1414   -0.1899 CT        1 <0>       -0.06263
      7 C7          0.4243    0.6095   -0.1250 CT        1 <0>       -0.05825
      8 H1          0.8108   -1.7964   -1.5443 HC        1 <0>        0.03256
      9 H2          1.7193   -0.5408   -2.3859 HC        1 <0>        0.03256
     10 H3          2.5811   -1.8140   -1.4938 HC        1 <0>        0.03256
     11 H4         -1.1480   -0.6264    1.9294 HC        1 <0>        0.03306
     12 H5         -0.3558   -1.8778    0.9766 HC        1 <0>        0.03306
     13 H6         -2.1048   -1.6665    0.8572 HC        1 <0>        0.03306
     14 H7         -2.1706    1.4436    0.6395 HC        1 <0>        0.03306
     15 H8         -3.0690    0.2834   -0.3457 HC        1 <0>        0.03306
     16 H9         -2.0418    1.5082   -1.1193 HC        1 <0>        0.03306
     17 H10         0.5432    0.9005    2.0418 HC        1 <0>        0.03362
     18 H11         1.5034    2.0638    1.1073 HC        1 <0>        0.03362
     19 H12        -0.2550    2.2108    1.1825 HC        1 <0>        0.03362
     20 H13         2.5634    0.3012   -0.2004 HC        1 <0>        0.03793
     21 H14         1.7162   -0.9736    0.6547 HC        1 <0>        0.03793
     22 H15        -0.9579   -0.7162   -1.1243 HC        1 <0>        0.04413
     23 H16         0.4622    1.2819   -0.9938 HC        1 <0>        0.04275
@<TRIPOS>BOND
     1    1    5 1
     2    2    6 1
     3    3    6 1
     4    4    7 1
     5    5    7 1
     6    6    7 1
     7    1    8 1
     8    1    9 1
     9    1   10 1
    10    2   11 1
    11    2   12 1
    12    2   13 1
    13    3   14 1
    14    3   15 1
    15    3   16 1
    16    4   17 1
    17    4   18 1
    18    4   19 1
    19    5   20 1
    20    5   21 1
    21    6   22 1
    22    7   23 1
@<TRIPOS>SUBSTRUCTURE
     1 <0>         1 GROUP 0 A     ****
