@<TRIPOS>MOLECULE
AlkEthOH_r985
   23    23     1     0     0
SMALL
USER_CHARGES

@<TRIPOS>ATOM
      1 C1         -0.7960   -1.5547    0.4879 CT        1 <0>       -0.08798
      2 C2          0.0938   -1.3625   -0.7439 CT        1 <0>       -0.10381
      3 C3         -0.7001   -0.4631    1.5494 CT        1 <0>        0.12839
      4 C4          1.0389    1.1741    1.4362 CT        1 <0>        0.10949
      5 C5          1.2539    1.2901   -0.0686 CT        1 <0>        0.09761
      6 C6         -0.0979   -0.0566   -1.5349 CT        1 <0>        0.14619
      7 C7         -1.4648   -0.0101   -2.2120 CT        1 <0>       -0.09183
      8 O1          0.6614   -0.1454    1.8303 OS        1 <0>       -0.42077
      9 O2          0.0108    1.1282   -0.7445 OS        1 <0>       -0.42659
     10 H1         -1.8428   -1.6780    0.1886 HC        1 <0>        0.04373
     11 H2         -0.4965   -2.5043    0.9506 HC        1 <0>        0.04373
     12 H3          1.1391   -1.4439   -0.4229 HC        1 <0>        0.04914
     13 H4         -0.0673   -2.2115   -1.4208 HC        1 <0>        0.04914
     14 H5         -1.2853    0.4187    1.2645 H1        1 <0>        0.04774
     15 H6         -1.1436   -0.8375    2.4789 H1        1 <0>        0.04774
     16 H7          1.9814    1.3993    1.9457 H1        1 <0>        0.05314
     17 H8          0.2919    1.8936    1.7923 H1        1 <0>        0.05314
     18 H9          1.6143    2.2984   -0.2976 H1        1 <0>        0.04924
     19 H10         2.0104    0.5825   -0.4236 H1        1 <0>        0.04924
     20 H11         0.6657   -0.0097   -2.3219 H1        1 <0>        0.02985
     21 H12        -2.2519   -0.0547   -1.4605 HC        1 <0>        0.04449
     22 H13        -1.5714   -0.8563   -2.8893 HC        1 <0>        0.04449
     23 H14        -1.5660    0.9144   -2.7788 HC        1 <0>        0.04449
@<TRIPOS>BOND
     1    1    2 1
     2    1    3 1
     3    2    6 1
     4    3    8 1
     5    4    5 1
     6    4    8 1
     7    5    9 1
     8    6    7 1
     9    6    9 1
    10    1   10 1
    11    1   11 1
    12    2   12 1
    13    2   13 1
    14    3   14 1
    15    3   15 1
    16    4   16 1
    17    4   17 1
    18    5   18 1
    19    5   19 1
    20    6   20 1
    21    7   21 1
    22    7   22 1
    23    7   23 1
@<TRIPOS>SUBSTRUCTURE
     1 <0>         1 GROUP 0 A     ****
