@<TRIPOS>MOLECULE
AlkEthOH_r28
   15    15     1     0     0
SMALL
USER_CHARGES

@<TRIPOS>ATOM
      1 C1         -0.8856    0.3606    0.9638 CT        1 <0>       -0.09884
      2 C2         -0.5473   -1.0745    0.6255 CT        1 <0>       -0.09877
      3 C3          0.2868    1.1097    0.3580 CT        1 <0>        0.33384
      4 C4          0.0691   -0.9336   -0.7538 CT        1 <0>        0.33384
      5 O1          0.7083    0.3499   -0.7833 OS        1 <0>       -0.49499
      6 O2          1.3312    1.1927    1.3214 OH        1 <0>       -0.61961
      7 O3         -0.9626   -1.0048   -1.7316 OH        1 <0>       -0.61961
      8 H1         -1.8156    0.6428    0.4565 HC        1 <0>        0.07164
      9 H2         -1.0051    0.5226    2.0387 HC        1 <0>        0.07164
     10 H3          0.2002   -1.4474    1.3356 HC        1 <0>        0.07164
     11 H4         -1.4216   -1.7309    0.6535 HC        1 <0>        0.07164
     12 H5          0.0072    2.1226    0.0514 H2        1 <0>        0.06695
     13 H6          0.8016   -1.7218   -0.9542 H2        1 <0>        0.06695
     14 H7          2.0600    1.6755    0.9006 HO        1 <0>        0.42184
     15 H8         -0.5329   -0.9114   -2.5966 HO        1 <0>        0.42184
@<TRIPOS>BOND
     1    1    2 1
     2    1    3 1
     3    2    4 1
     4    3    5 1
     5    3    6 1
     6    4    5 1
     7    4    7 1
     8    1    8 1
     9    1    9 1
    10    2   10 1
    11    2   11 1
    12    3   12 1
    13    4   13 1
    14    6   14 1
    15    7   15 1
@<TRIPOS>SUBSTRUCTURE
     1 <0>         1 GROUP 0 A     ****
