@<TRIPOS>MOLECULE
AlkEthOH_r1116
   21    21     1     0     0
SMALL
USER_CHARGES

@<TRIPOS>ATOM
      1 C1          1.0832   -1.1147   -0.2940 CT        1 <0>       -0.16469
      2 C2         -0.2201   -1.5604   -0.9483 CT        1 <0>        0.13691
      3 C3         -1.1732    0.5182   -0.4044 CT        1 <0>        0.33394
      4 C4          0.8146   -0.0438    0.7727 CT        1 <0>        0.34803
      5 C5         -1.8975    1.7057   -1.0167 CT        1 <0>       -0.08680
      6 C6          2.1279    0.5688    1.2551 CT        1 <0>       -0.11418
      7 O1         -0.9191   -0.4228   -1.4494 OS        1 <0>       -0.43970
      8 O2          0.0259    1.0076    0.2020 OS        1 <0>       -0.42637
      9 O3          0.1583   -0.6586    1.8830 OH        1 <0>       -0.62252
     10 H1          1.5951   -1.9829    0.1355 HC        1 <0>        0.06224
     11 H2          1.7207   -0.6864   -1.0780 HC        1 <0>        0.06224
     12 H3         -0.0118   -2.2280   -1.7901 H1        1 <0>        0.05498
     13 H4         -0.8618   -2.1025   -0.2441 H1        1 <0>        0.05498
     14 H5         -1.8203    0.0640    0.3566 H2        1 <0>        0.05987
     15 H6         -1.2732    2.1758   -1.7785 HC        1 <0>        0.05542
     16 H7         -2.1274    2.4444   -0.2470 HC        1 <0>        0.05542
     17 H8         -2.8304    1.3798   -1.4800 HC        1 <0>        0.05542
     18 H9          1.9263    1.3263    2.0106 HC        1 <0>        0.05458
     19 H10         2.6495    1.0299    0.4180 HC        1 <0>        0.05458
     20 H11         2.7599   -0.2059    1.6863 HC        1 <0>        0.05458
     21 H12         0.7615   -1.3414    2.2123 HO        1 <0>        0.41107
@<TRIPOS>BOND
     1    1    2 1
     2    1    4 1
     3    2    7 1
     4    3    5 1
     5    3    7 1
     6    3    8 1
     7    4    6 1
     8    4    8 1
     9    4    9 1
    10    1   10 1
    11    1   11 1
    12    2   12 1
    13    2   13 1
    14    3   14 1
    15    5   15 1
    16    5   16 1
    17    5   17 1
    18    6   18 1
    19    6   19 1
    20    6   20 1
    21    9   21 1
@<TRIPOS>SUBSTRUCTURE
     1 <0>         1 GROUP 0 A     ****
