@<TRIPOS>MOLECULE
AlkEthOH_r749
   20    20     1     0     0
SMALL
USER_CHARGES

@<TRIPOS>ATOM
      1 C1          1.5331    0.2842    0.0895 CT        1 <0>       -0.14127
      2 C2          1.3719   -1.1409    0.5873 CT        1 <0>        0.13276
      3 C3         -0.7152   -0.0940    0.6618 CT        1 <0>        0.15419
      4 C4          0.1340    0.6108   -0.3966 CT        1 <0>        0.12157
      5 C5         -2.1216   -0.4761    0.2322 CT        1 <0>       -0.08772
      6 C6         -0.1439    2.1015   -0.5131 CT        1 <0>       -0.11593
      7 O1          0.0089   -1.2903    1.0119 OS        1 <0>       -0.42510
      8 O2         -0.0672    0.0049   -1.6731 OH        1 <0>       -0.58535
      9 H1          1.8169    0.9325    0.9273 HC        1 <0>        0.05810
     10 H2          2.3049    0.3526   -0.6832 HC        1 <0>        0.05810
     11 H3          1.5534   -1.8658   -0.2132 H1        1 <0>        0.04984
     12 H4          2.0433   -1.3690    1.4201 H1        1 <0>        0.04984
     13 H5         -0.7692    0.5136    1.5721 H1        1 <0>        0.04636
     14 H6         -2.0875   -1.0828   -0.6748 HC        1 <0>        0.04835
     15 H7         -2.7116    0.4202    0.0317 HC        1 <0>        0.04835
     16 H8         -2.6137   -1.0505    1.0193 HC        1 <0>        0.04835
     17 H9         -1.1627    2.2667   -0.8660 HC        1 <0>        0.04691
     18 H10         0.5513    2.5586   -1.2185 HC        1 <0>        0.04691
     19 H11        -0.0259    2.5821    0.4591 HC        1 <0>        0.04691
     20 H12         0.6048    0.3787   -2.2630 HO        1 <0>        0.39883
@<TRIPOS>BOND
     1    1    2 1
     2    1    4 1
     3    2    7 1
     4    3    4 1
     5    3    5 1
     6    3    7 1
     7    4    6 1
     8    4    8 1
     9    1    9 1
    10    1   10 1
    11    2   11 1
    12    2   12 1
    13    3   13 1
    14    5   14 1
    15    5   15 1
    16    5   16 1
    17    6   17 1
    18    6   18 1
    19    6   19 1
    20    8   20 1
@<TRIPOS>SUBSTRUCTURE
     1 <0>         1 GROUP 0 A     ****
