@<TRIPOS>MOLECULE
AlkEthOH_r519
   21    21     1     0     0
SMALL
USER_CHARGES

@<TRIPOS>ATOM
      1 C1          0.7837   -0.5831    1.1772 CT        1 <0>       -0.13768
      2 C2          0.6375   -1.6794    0.1316 CT        1 <0>        0.13825
      3 C3         -1.0837   -0.4379   -0.9022 CT        1 <0>        0.51917
      4 C4          0.3256    0.7820    0.6353 CT        1 <0>        0.16548
      5 C5          0.1359    1.7585    1.8044 CT        1 <0>       -0.10113
      6 C6          1.3480    1.3902   -0.3348 CT        1 <0>       -0.10113
      7 O1         -0.7021   -1.7016   -0.3513 OS        1 <0>       -0.47201
      8 O2         -0.9605    0.6579    0.0115 OS        1 <0>       -0.42285
      9 O3         -0.4845   -0.1865   -2.1715 OH        1 <0>       -0.64396
     10 H1          0.1389   -0.8563    2.0233 HC        1 <0>        0.06050
     11 H2          1.8133   -0.5394    1.5494 HC        1 <0>        0.06050
     12 H3          1.3320   -1.5480   -0.7050 H1        1 <0>        0.05552
     13 H4          0.8483   -2.6554    0.5803 H1        1 <0>        0.05552
     14 H5         -2.1590   -0.5253   -1.0902 H3        1 <0>        0.11263
     15 H6         -0.1876    2.7221    1.4215 HC        1 <0>        0.04807
     16 H7          1.0771    1.8759    2.3335 HC        1 <0>        0.04807
     17 H8         -0.6160    1.3671    2.4837 HC        1 <0>        0.04807
     18 H9          0.9829    2.3495   -0.6900 HC        1 <0>        0.04807
     19 H10         1.4883    0.7206   -1.1785 HC        1 <0>        0.04807
     20 H11         2.2948    1.5300    0.1789 HC        1 <0>        0.04807
     21 H12        -0.7796   -0.8973   -2.7610 HO        1 <0>        0.42277
@<TRIPOS>BOND
     1    1    2 1
     2    1    4 1
     3    2    7 1
     4    3    7 1
     5    3    8 1
     6    3    9 1
     7    4    5 1
     8    4    6 1
     9    4    8 1
    10    1   10 1
    11    1   11 1
    12    2   12 1
    13    2   13 1
    14    3   14 1
    15    5   15 1
    16    5   16 1
    17    5   17 1
    18    6   18 1
    19    6   19 1
    20    6   20 1
    21    9   21 1
@<TRIPOS>SUBSTRUCTURE
     1 <0>         1 GROUP 0 A     ****
