@<TRIPOS>MOLECULE
AlkEthOH_r4
   15    15     1     0     0
SMALL
USER_CHARGES

@<TRIPOS>ATOM
      1 C1          0.9888    0.2640    0.7493 CT        1 <0>       -0.13911
      2 C2         -0.5709   -1.3708    0.0745 CT        1 <0>        0.08923
      3 C3          0.8460   -0.9094   -0.1936 CT        1 <0>        0.10658
      4 C4         -0.4068    0.8680    0.7306 CT        1 <0>        0.33406
      5 O1         -1.3158   -0.2149    0.4931 OS        1 <0>       -0.44242
      6 O2          0.9460   -0.4730   -1.5444 OH        1 <0>       -0.59467
      7 O3         -0.4873    1.8360   -0.3095 OH        1 <0>       -0.60398
      8 H1          1.2119   -0.1092    1.7556 HC        1 <0>        0.08065
      9 H2          1.7615    0.9752    0.4424 HC        1 <0>        0.08065
     10 H3         -1.0619   -1.8073   -0.7999 H1        1 <0>        0.05535
     11 H4         -0.6019   -2.0883    0.9007 H1        1 <0>        0.05535
     12 H5          1.5888   -1.6948   -0.0323 H1        1 <0>        0.05314
     13 H6         -0.6476    1.3537    1.6814 H2        1 <0>        0.10085
     14 H7          0.8477   -1.2625   -2.1000 HO        1 <0>        0.40536
     15 H8         -1.3886    2.1948   -0.2867 HO        1 <0>        0.41896
@<TRIPOS>BOND
     1    1    3 1
     2    1    4 1
     3    2    3 1
     4    2    5 1
     5    3    6 1
     6    4    5 1
     7    4    7 1
     8    1    8 1
     9    1    9 1
    10    2   10 1
    11    2   11 1
    12    3   12 1
    13    4   13 1
    14    6   14 1
    15    7   15 1
@<TRIPOS>SUBSTRUCTURE
     1 <0>         1 GROUP 0 A     ****
