@<TRIPOS>MOLECULE
AlkEthOH_r330
   28    28     1     0     0
SMALL
USER_CHARGES

@<TRIPOS>ATOM
      1 C1          2.1627    0.2766   -0.6240 CT        1 <0>       -0.07102
      2 C2          1.0519    0.3149   -1.6713 CT        1 <0>       -0.07379
      3 C3          1.7653    0.7589    0.7653 CT        1 <0>       -0.10773
      4 C4         -0.0038   -0.7672   -1.4447 CT        1 <0>       -0.06961
      5 C5         -0.7649    0.4666    0.7138 CT        1 <0>       -0.10026
      6 C6          0.5519    0.0650    1.3879 CT        1 <0>        0.14333
      7 C7         -1.1780   -0.3744   -0.5175 CT        1 <0>       -0.04502
      8 C8         -2.2208    0.4335   -1.3208 CT        1 <0>       -0.08878
      9 C9         -1.8637   -1.6735   -0.0406 CT        1 <0>       -0.08878
     10 O1          0.4994    0.4996    2.7519 OH        1 <0>       -0.60334
     11 H1          2.5661   -0.7412   -0.5522 HC        1 <0>        0.03964
     12 H2          2.9904    0.9054   -0.9756 HC        1 <0>        0.03964
     13 H3          0.6065    1.3134   -1.7332 HC        1 <0>        0.04118
     14 H4          1.5196    0.1248   -2.6460 HC        1 <0>        0.04118
     15 H5          2.6282    0.6298    1.4326 HC        1 <0>        0.04351
     16 H6          1.5944    1.8435    0.7394 HC        1 <0>        0.04351
     17 H7         -0.4129   -1.0552   -2.4229 HC        1 <0>        0.03984
     18 H8          0.4896   -1.6723   -1.0662 HC        1 <0>        0.03984
     19 H9         -1.5786    0.4324    1.4521 HC        1 <0>        0.04730
     20 H10        -0.7037    1.5286    0.4375 HC        1 <0>        0.04730
     21 H11         0.6922   -1.0206    1.4030 H1        1 <0>        0.07892
     22 H12        -3.0384    0.7039   -0.6640 HC        1 <0>        0.03490
     23 H13        -2.5877   -0.1780   -2.1360 HC        1 <0>        0.03490
     24 H14        -1.7490    1.3268   -1.7114 HC        1 <0>        0.03490
     25 H15        -2.6899   -1.4166    0.6109 HC        1 <0>        0.03490
     26 H16        -1.1418   -2.2755    0.4973 HC        1 <0>        0.03490
     27 H17        -2.2283   -2.2163   -0.9041 HC        1 <0>        0.03490
     28 H18         0.4030    1.4620    2.7239 HO        1 <0>        0.39374
@<TRIPOS>BOND
     1    1    2 1
     2    1    3 1
     3    2    4 1
     4    3    6 1
     5    4    7 1
     6    5    6 1
     7    5    7 1
     8    6   10 1
     9    7    8 1
    10    7    9 1
    11    1   11 1
    12    1   12 1
    13    2   13 1
    14    2   14 1
    15    3   15 1
    16    3   16 1
    17    4   17 1
    18    4   18 1
    19    5   19 1
    20    5   20 1
    21    6   21 1
    22    8   22 1
    23    8   23 1
    24    8   24 1
    25    9   25 1
    26    9   26 1
    27    9   27 1
    28   10   28 1
@<TRIPOS>SUBSTRUCTURE
     1 <0>         1 GROUP 0 A     ****
