@<TRIPOS>MOLECULE
AlkEthOH_c470
   22    21     1     0     0
SMALL
USER_CHARGES

@<TRIPOS>ATOM
      1 C1         -0.2765   -3.2843   -0.8538 CT        1 <0>       -0.09158
      2 C2          0.0168   -0.9791    0.0745 CT        1 <0>       -0.09158
      3 C3         -0.3808   -1.3238   -2.4187 CT        1 <0>       -0.07867
      4 C4         -1.1136   -2.0995   -3.5067 CT        1 <0>        0.13149
      5 C5         -1.3852   -2.2447   -5.8492 CT        1 <0>        0.32938
      6 C6         -0.6860   -1.8165   -0.9949 CT        1 <0>       -0.06621
      7 O1         -2.7951   -2.0732   -5.8470 OH        1 <0>       -0.62959
      8 O2         -0.7406   -1.5710   -4.7733 OS        1 <0>       -0.41549
      9 H1          0.8000   -3.4056   -1.0148 HC        1 <0>        0.03398
     10 H2         -0.8009   -3.9152   -1.5797 HC        1 <0>        0.03398
     11 H3         -0.5068   -3.6582    0.1495 HC        1 <0>        0.03398
     12 H4          1.1046   -1.0088   -0.0494 HC        1 <0>        0.03398
     13 H5         -0.2191   -1.3525    1.0769 HC        1 <0>        0.03398
     14 H6         -0.3029    0.0666    0.0356 HC        1 <0>        0.03398
     15 H7          0.6985   -1.3957   -2.6079 HC        1 <0>        0.05384
     16 H8         -0.6213   -0.2567   -2.5134 HC        1 <0>        0.05384
     17 H9         -0.8430   -3.1597   -3.4801 H1        1 <0>        0.03675
     18 H10        -2.1983   -2.0026   -3.4059 H1        1 <0>        0.03675
     19 H11        -1.1336   -3.3116   -5.8586 H2        1 <0>        0.03442
     20 H12        -1.0070   -1.8061   -6.7771 H2        1 <0>        0.03442
     21 H13        -1.7682   -1.7520   -0.8249 HC        1 <0>        0.04779
     22 H14        -3.1459   -2.5635   -6.6096 HO        1 <0>        0.41056
@<TRIPOS>BOND
     1    1    6 1
     2    2    6 1
     3    3    4 1
     4    3    6 1
     5    4    8 1
     6    5    7 1
     7    5    8 1
     8    1    9 1
     9    1   10 1
    10    1   11 1
    11    2   12 1
    12    2   13 1
    13    2   14 1
    14    3   15 1
    15    3   16 1
    16    4   17 1
    17    4   18 1
    18    5   19 1
    19    5   20 1
    20    6   21 1
    21    7   22 1
@<TRIPOS>SUBSTRUCTURE
     1 <0>         1 GROUP 0 A     ****
