@<TRIPOS>MOLECULE
AlkEthOH_r1150
   18    18     1     0     0
SMALL
USER_CHARGES

@<TRIPOS>ATOM
      1 C1          1.3899    0.0042   -1.2113 CT        1 <0>        0.10280
      2 C2          1.1419   -1.2436   -0.3744 CT        1 <0>        0.09981
      3 C3         -0.5748    1.3336   -0.9447 CT        1 <0>        0.32783
      4 C4         -0.7235   -0.2983    0.7895 CT        1 <0>        0.32808
      5 C5         -1.3546   -0.3581    2.1727 CT        1 <0>       -0.08851
      6 O1          0.1543    0.4330   -1.7747 OS        1 <0>       -0.46102
      7 O2          0.5444   -0.9501    0.8857 OS        1 <0>       -0.42745
      8 O3         -0.5776    1.0794    0.4572 OS        1 <0>       -0.46436
      9 H1          1.8610    0.8103   -0.6375 H1        1 <0>        0.06508
     10 H2          2.0468   -0.2524   -2.0484 H1        1 <0>        0.06508
     11 H3          0.5063   -1.9605   -0.9068 H1        1 <0>        0.05734
     12 H4          2.0974   -1.7330   -0.1609 H1        1 <0>        0.05734
     13 H5         -0.1748    2.3416   -1.0966 H2        1 <0>        0.06118
     14 H6         -1.6117    1.3433   -1.2968 H2        1 <0>        0.06118
     15 H7         -1.3807   -0.8193    0.0805 H2        1 <0>        0.04855
     16 H8         -0.7196    0.1537    2.8969 HC        1 <0>        0.05569
     17 H9         -1.4776   -1.3962    2.4839 HC        1 <0>        0.05569
     18 H10        -2.3329    0.1240    2.1594 HC        1 <0>        0.05569
@<TRIPOS>BOND
     1    1    2 1
     2    1    6 1
     3    2    7 1
     4    3    6 1
     5    3    8 1
     6    4    5 1
     7    4    7 1
     8    4    8 1
     9    1    9 1
    10    1   10 1
    11    2   11 1
    12    2   12 1
    13    3   13 1
    14    3   14 1
    15    4   15 1
    16    5   16 1
    17    5   17 1
    18    5   18 1
@<TRIPOS>SUBSTRUCTURE
     1 <0>         1 GROUP 0 A     ****
