@<TRIPOS>MOLECULE
AlkEthOH_r55
   25    25     1     0     0
SMALL
USER_CHARGES

@<TRIPOS>ATOM
      1 C1         -0.5598   -0.9228    0.1988 CT        1 <0>       -0.07521
      2 C2         -1.8223   -0.5900    0.9970 CT        1 <0>       -0.07490
      3 C3          0.3811   -1.9687    0.8007 CT        1 <0>       -0.07490
      4 C4         -1.5680    0.1591    2.3049 CT        1 <0>       -0.06891
      5 C5          1.1086   -1.5153    2.0664 CT        1 <0>       -0.06891
      6 C6         -1.6446   -0.6944    3.5695 CT        1 <0>       -0.10294
      7 C7          0.5414   -2.0662    3.3735 CT        1 <0>       -0.10294
      8 C8         -0.9772   -2.0682    3.5471 CT        1 <0>        0.14081
      9 O1         -1.2662   -2.6780    4.8141 OH        1 <0>       -0.60464
     10 H1         -0.8802   -1.2952   -0.7830 HC        1 <0>        0.03724
     11 H2          0.0001   -0.0001    0.0001 HC        1 <0>        0.03724
     12 H3         -2.4297    0.0654    0.3582 HC        1 <0>        0.03997
     13 H4         -2.4289   -1.4880    1.1560 HC        1 <0>        0.03997
     14 H5         -0.1421   -2.9190    0.9529 HC        1 <0>        0.03997
     15 H6          1.1461   -2.1729    0.0393 HC        1 <0>        0.03997
     16 H7         -0.6231    0.7099    2.2680 HC        1 <0>        0.03864
     17 H8         -2.3382    0.9362    2.4048 HC        1 <0>        0.03864
     18 H9          2.1477   -1.8662    2.0032 HC        1 <0>        0.03864
     19 H10         1.1871   -0.4247    2.1093 HC        1 <0>        0.03864
     20 H11        -1.2550   -0.1107    4.4144 HC        1 <0>        0.04328
     21 H12        -2.7064   -0.8466    3.8103 HC        1 <0>        0.04328
     22 H13         0.8911   -3.1028    3.4809 HC        1 <0>        0.04328
     23 H14         1.0057   -1.5338    4.2143 HC        1 <0>        0.04328
     24 H15        -1.4512   -2.7057    2.7954 H1        1 <0>        0.07686
     25 H16        -0.8877   -2.0922    5.4837 HO        1 <0>        0.39364
@<TRIPOS>BOND
     1    1    2 1
     2    1    3 1
     3    2    4 1
     4    3    5 1
     5    4    6 1
     6    5    7 1
     7    6    8 1
     8    7    8 1
     9    8    9 1
    10    1   10 1
    11    1   11 1
    12    2   12 1
    13    2   13 1
    14    3   14 1
    15    3   15 1
    16    4   16 1
    17    4   17 1
    18    5   18 1
    19    5   19 1
    20    6   20 1
    21    6   21 1
    22    7   22 1
    23    7   23 1
    24    8   24 1
    25    9   25 1
@<TRIPOS>SUBSTRUCTURE
     1 <0>         1 GROUP 0 A     ****
