@<TRIPOS>MOLECULE
AlkEthOH_r723
   25    25     1     0     0
SMALL
USER_CHARGES

@<TRIPOS>ATOM
      1 C1         -1.3257    0.0951    1.5077 CT        1 <0>        0.10447
      2 C2          0.0009   -0.3254    2.1123 CT        1 <0>        0.11372
      3 C3         -0.8742    0.5928   -0.8108 CT        1 <0>        0.37567
      4 C4          1.1158   -0.5987   -0.0128 CT        1 <0>        0.54345
      5 C5         -2.2058    0.1369   -1.4256 CT        1 <0>       -0.10787
      6 C6         -0.3632    1.7726   -1.6482 CT        1 <0>       -0.10787
      7 C7          2.0412   -1.6499   -0.6358 CT        1 <0>       -0.09099
      8 O1         -1.0996    1.0862    0.5119 OS        1 <0>       -0.43495
      9 O2          0.7443   -1.1736    1.2465 OS        1 <0>       -0.47052
     10 O3          0.0347   -0.5020   -0.9458 OS        1 <0>       -0.46994
     11 O4          1.9317    0.5659    0.1006 OH        1 <0>       -0.62777
     12 H1         -1.8793   -0.7624    1.1148 H1        1 <0>        0.06013
     13 H2         -1.9370    0.5649    2.2849 H1        1 <0>        0.06013
     14 H3          0.6115    0.5399    2.3914 H1        1 <0>        0.05739
     15 H4         -0.1876   -0.9005    3.0247 H1        1 <0>        0.05739
     16 H5         -2.5980   -0.7002   -0.8560 HC        1 <0>        0.05447
     17 H6         -2.0418   -0.1687   -2.4546 HC        1 <0>        0.05447
     18 H7         -2.9151    0.9588   -1.3991 HC        1 <0>        0.05447
     19 H8          0.5811    2.1232   -1.2414 HC        1 <0>        0.05447
     20 H9         -1.0912    2.5786   -1.6200 HC        1 <0>        0.05447
     21 H10        -0.2180    1.4512   -2.6758 HC        1 <0>        0.05447
     22 H11         2.3821   -1.3037   -1.6081 HC        1 <0>        0.06196
     23 H12         1.5006   -2.5853   -0.7550 HC        1 <0>        0.06196
     24 H13         2.8992   -1.8087    0.0122 HC        1 <0>        0.06196
     25 H14         2.6766    0.3251    0.6722 HO        1 <0>        0.42486
@<TRIPOS>BOND
     1    1    2 1
     2    1    8 1
     3    2    9 1
     4    3    5 1
     5    3    6 1
     6    3    8 1
     7    3   10 1
     8    4    7 1
     9    4    9 1
    10    4   10 1
    11    4   11 1
    12    1   12 1
    13    1   13 1
    14    2   14 1
    15    2   15 1
    16    5   16 1
    17    5   17 1
    18    5   18 1
    19    6   19 1
    20    6   20 1
    21    6   21 1
    22    7   22 1
    23    7   23 1
    24    7   24 1
    25   11   25 1
@<TRIPOS>SUBSTRUCTURE
     1 <0>         1 GROUP 0 A     ****
