@<TRIPOS>MOLECULE
AlkEthOH_r1037
   26    26     1     0     0
SMALL
USER_CHARGES

@<TRIPOS>ATOM
      1 C1          0.7181    1.4063   -0.3859 CT        1 <0>       -0.10429
      2 C2          0.6352   -1.1831    0.0467 CT        1 <0>       -0.10321
      3 C3         -0.4564    1.4299   -1.3699 CT        1 <0>        0.14459
      4 C4         -2.0378    0.1783   -0.0702 CT        1 <0>        0.32464
      5 C5          1.4845    0.0737   -0.2523 CT        1 <0>       -0.04348
      6 C6         -0.4029   -1.0760    1.1800 CT        1 <0>        0.15431
      7 C7          2.3353   -0.1788   -1.5032 CT        1 <0>       -0.09452
      8 C8          0.2801   -1.0295    2.5445 CT        1 <0>       -0.09304
      9 O1         -1.3178    0.3006   -1.2938 OS        1 <0>       -0.45055
     10 O2         -1.2384    0.0786    1.1040 OS        1 <0>       -0.44810
     11 H1          1.4196    2.2006   -0.6735 HC        1 <0>        0.05181
     12 H2          0.3639    1.7078    0.6064 HC        1 <0>        0.05181
     13 H3          0.1244   -1.4995   -0.8707 HC        1 <0>        0.05169
     14 H4          1.3153   -2.0150    0.2769 HC        1 <0>        0.05169
     15 H5         -1.0431    2.3469   -1.2396 H1        1 <0>        0.04268
     16 H6         -0.0625    1.4531   -2.3918 H1        1 <0>        0.04268
     17 H7         -2.6931    1.0486    0.0415 H2        1 <0>        0.05930
     18 H8         -2.6818   -0.7047   -0.1418 H2        1 <0>        0.05930
     19 H9          2.1859    0.2007    0.5832 HC        1 <0>        0.03977
     20 H10        -1.0434   -1.9666    1.1563 H1        1 <0>        0.03060
     21 H11         1.6849   -0.3119   -2.3634 HC        1 <0>        0.03362
     22 H12         2.9335   -1.0745   -1.3601 HC        1 <0>        0.03362
     23 H13         2.9910    0.6709   -1.6734 HC        1 <0>        0.03362
     24 H14         0.9266   -0.1552    2.6048 HC        1 <0>        0.04382
     25 H15         0.8803   -1.9267    2.6883 HC        1 <0>        0.04382
     26 H16        -0.4701   -0.9727    3.3318 HC        1 <0>        0.04382
@<TRIPOS>BOND
     1    1    3 1
     2    1    5 1
     3    2    5 1
     4    2    6 1
     5    3    9 1
     6    4    9 1
     7    4   10 1
     8    5    7 1
     9    6    8 1
    10    6   10 1
    11    1   11 1
    12    1   12 1
    13    2   13 1
    14    2   14 1
    15    3   15 1
    16    3   16 1
    17    4   17 1
    18    4   18 1
    19    5   19 1
    20    6   20 1
    21    7   21 1
    22    7   22 1
    23    7   23 1
    24    8   24 1
    25    8   25 1
    26    8   26 1
@<TRIPOS>SUBSTRUCTURE
     1 <0>         1 GROUP 0 A     ****
