@<TRIPOS>MOLECULE
AlkEthOH_r68
   19    19     1     0     0
SMALL
USER_CHARGES

@<TRIPOS>ATOM
      1 C1         -0.2449    0.9906    1.3492 CT        1 <0>       -0.07263
      2 C2          1.1266    0.8662    0.6839 CT        1 <0>       -0.07254
      3 C3         -1.4368    0.7553    0.4237 CT        1 <0>       -0.10782
      4 C4          1.4636   -0.5704    0.2938 CT        1 <0>       -0.10782
      5 C5         -1.3800   -0.5559   -0.3482 CT        1 <0>        0.13256
      6 C6          0.8655   -1.0259   -1.0353 CT        1 <0>        0.13256
      7 O1         -0.3940   -0.4600   -1.3671 OS        1 <0>       -0.41923
      8 H1         -0.3031    0.2959    2.1965 HC        1 <0>        0.04100
      9 H2         -0.3360    1.9983    1.7736 HC        1 <0>        0.04100
     10 H3          1.2021    1.5352   -0.1810 HC        1 <0>        0.04100
     11 H4          1.8771    1.2055    1.4090 HC        1 <0>        0.04100
     12 H5         -2.3525    0.7799    1.0257 HC        1 <0>        0.04547
     13 H6         -1.4928    1.5892   -0.2873 HC        1 <0>        0.04547
     14 H7          2.5526   -0.6901    0.2355 HC        1 <0>        0.04547
     15 H8          1.1351   -1.2497    1.0904 HC        1 <0>        0.04547
     16 H9         -1.2209   -1.4237    0.3024 H1        1 <0>        0.04226
     17 H10        -2.3403   -0.7020   -0.8542 H1        1 <0>        0.04226
     18 H11         1.5495   -0.7482   -1.8451 H1        1 <0>        0.04226
     19 H12         0.7845   -2.1189   -1.0580 H1        1 <0>        0.04226
@<TRIPOS>BOND
     1    1    2 1
     2    1    3 1
     3    2    4 1
     4    3    5 1
     5    4    6 1
     6    5    7 1
     7    6    7 1
     8    1    8 1
     9    1    9 1
    10    2   10 1
    11    2   11 1
    12    3   12 1
    13    3   13 1
    14    4   14 1
    15    4   15 1
    16    5   16 1
    17    5   17 1
    18    6   18 1
    19    6   19 1
@<TRIPOS>SUBSTRUCTURE
     1 <0>         1 GROUP 0 A     ****
