@<TRIPOS>MOLECULE
AlkEthOH_c296
   31    30     1     0     0
SMALL
USER_CHARGES

@<TRIPOS>ATOM
      1 C1         -1.9166    0.5391    2.1165 CT        1 <0>       -0.08933
      2 C2         -2.6965    0.9264   -0.2283 CT        1 <0>       -0.08933
      3 C3          2.1474   -0.4893   -1.5838 CT        1 <0>       -0.12224
      4 C4          1.1871   -2.7028   -0.9288 CT        1 <0>       -0.12224
      5 C5          0.9284    1.2609    1.2485 CT        1 <0>       -0.11629
      6 C6         -0.0336   -0.6304   -0.2064 CT        1 <0>       -0.05212
      7 C7         -1.5739    1.2093    0.7814 CT        1 <0>       -0.09048
      8 C8          1.3644   -1.2368   -0.5036 CT        1 <0>        0.15568
      9 C9         -0.1478    0.8583    0.2304 CT        1 <0>        0.16464
     10 O1          2.1343   -1.2442    0.6995 OH        1 <0>       -0.60317
     11 O2          0.0556    1.6701   -0.9363 OH        1 <0>       -0.60869
     12 H1         -1.9146   -0.5513    2.0325 HC        1 <0>        0.03702
     13 H2         -1.1725    0.8023    2.8768 HC        1 <0>        0.03702
     14 H3         -2.8937    0.8545    2.4940 HC        1 <0>        0.03702
     15 H4         -2.7431   -0.1446   -0.4553 HC        1 <0>        0.03702
     16 H5         -2.5340    1.4531   -1.1739 HC        1 <0>        0.03702
     17 H6         -3.6746    1.2184    0.1663 HC        1 <0>        0.03702
     18 H7          2.2969    0.5621   -1.3206 HC        1 <0>        0.04340
     19 H8          3.1548   -0.9086   -1.6925 HC        1 <0>        0.04340
     20 H9          1.6492   -0.5486   -2.5566 HC        1 <0>        0.04340
     21 H10         0.6280   -3.2669   -0.1733 HC        1 <0>        0.04340
     22 H11         0.6059   -2.7721   -1.8556 HC        1 <0>        0.04340
     23 H12         2.1514   -3.1974   -1.0848 HC        1 <0>        0.04340
     24 H13         0.8179    2.3140    1.5333 HC        1 <0>        0.04719
     25 H14         1.9345    1.1801    0.8247 HC        1 <0>        0.04719
     26 H15         0.8807    0.6551    2.1583 HC        1 <0>        0.04719
     27 H16        -0.4905   -1.2482    0.5765 HC        1 <0>        0.05953
     28 H17        -0.6328   -0.7620   -1.1168 HC        1 <0>        0.05953
     29 H18        -1.5973    2.2956    0.9512 HC        1 <0>        0.03843
     30 H19         2.9647   -1.6969    0.4894 HO        1 <0>        0.39610
     31 H20        -0.0410    2.5862   -0.6426 HO        1 <0>        0.39589
@<TRIPOS>BOND
     1    1    7 1
     2    2    7 1
     3    3    8 1
     4    4    8 1
     5    5    9 1
     6    6    8 1
     7    6    9 1
     8    7    9 1
     9    8   10 1
    10    9   11 1
    11    1   12 1
    12    1   13 1
    13    1   14 1
    14    2   15 1
    15    2   16 1
    16    2   17 1
    17    3   18 1
    18    3   19 1
    19    3   20 1
    20    4   21 1
    21    4   22 1
    22    4   23 1
    23    5   24 1
    24    5   25 1
    25    5   26 1
    26    6   27 1
    27    6   28 1
    28    7   29 1
    29   10   30 1
    30   11   31 1
@<TRIPOS>SUBSTRUCTURE
     1 <0>         1 GROUP 0 A     ****
