@<TRIPOS>MOLECULE
AlkEthOH_c1268
   22    21     1     0     0
SMALL
USER_CHARGES

@<TRIPOS>ATOM
      1 C1          3.0009   -3.8664    4.0831 CT        1 <0>       -0.09549
      2 C2         -0.5521    0.0942    1.0158 CT        1 <0>       -0.12385
      3 C3          1.6683    0.5960    2.0745 CT        1 <0>       -0.12385
      4 C4          2.0530   -3.5288    2.9521 CT        1 <0>        0.12841
      5 C5          0.7921   -1.7855    2.0067 CT        1 <0>        0.14289
      6 C6          0.4298   -0.2995    2.1208 CT        1 <0>        0.15220
      7 O1         -0.2074   -0.0771    3.3815 OH        1 <0>       -0.58427
      8 O2          1.6860   -2.1600    3.0490 OS        1 <0>       -0.40869
      9 H1          3.9074   -3.2573    4.0274 HC        1 <0>        0.04509
     10 H2          2.5207   -3.6978    5.0526 HC        1 <0>        0.04509
     11 H3          3.2831   -4.9239    4.0474 HC        1 <0>        0.04509
     12 H4         -1.4437   -0.5426    1.0409 HC        1 <0>        0.04508
     13 H5         -0.8677    1.1383    1.1102 HC        1 <0>        0.04508
     14 H6         -0.1024   -0.0433    0.0258 HC        1 <0>        0.04508
     15 H7          2.3840    0.3285    2.8598 HC        1 <0>        0.04508
     16 H8          1.3973    1.6428    2.2552 HC        1 <0>        0.04508
     17 H9          2.1737    0.5330    1.1054 HC        1 <0>        0.04508
     18 H10         1.1486   -4.1414    3.0137 H1        1 <0>        0.02263
     19 H11         2.5346   -3.6970    1.9843 H1        1 <0>        0.02263
     20 H12        -0.1019   -2.4117    2.1000 H1        1 <0>        0.03258
     21 H13         1.2768   -1.9987    1.0480 H1        1 <0>        0.03258
     22 H14        -0.4226    0.8666    3.4141 HO        1 <0>        0.39648
@<TRIPOS>BOND
     1    1    4 1
     2    2    6 1
     3    3    6 1
     4    4    8 1
     5    5    6 1
     6    5    8 1
     7    6    7 1
     8    1    9 1
     9    1   10 1
    10    1   11 1
    11    2   12 1
    12    2   13 1
    13    2   14 1
    14    3   15 1
    15    3   16 1
    16    3   17 1
    17    4   18 1
    18    4   19 1
    19    5   20 1
    20    5   21 1
    21    7   22 1
@<TRIPOS>SUBSTRUCTURE
     1 <0>         1 GROUP 0 A     ****
