@<TRIPOS>MOLECULE
AlkEthOH_c930
   24    23     1     0     0
SMALL
USER_CHARGES

@<TRIPOS>ATOM
      1 C1         -2.1416   -0.4619    0.1591 CT        1 <0>       -0.08952
      2 C2          1.3530    1.2521    0.5190 CT        1 <0>       -0.08858
      3 C3          0.7642   -1.1112    1.0745 CT        1 <0>       -0.08858
      4 C4          0.6094    0.4208   -3.5288 CT        1 <0>        0.11565
      5 C5         -1.0483    0.5610    0.4431 CT        1 <0>       -0.06968
      6 C6          0.6201   -0.3243   -1.3000 CT        1 <0>        0.13290
      7 C7          0.4050    0.0837    0.1734 CT        1 <0>       -0.04961
      8 O1          0.3614    0.7674   -2.1732 OS        1 <0>       -0.41828
      9 H1         -1.9888   -1.3845    0.7257 HC        1 <0>        0.03232
     10 H2         -2.1339   -0.7253   -0.9040 HC        1 <0>        0.03232
     11 H3         -3.1347   -0.0681    0.3918 HC        1 <0>        0.03232
     12 H4          1.1369    2.1315   -0.0986 HC        1 <0>        0.03692
     13 H5          1.2476    1.5504    1.5682 HC        1 <0>        0.03692
     14 H6          2.4019    0.9817    0.3539 HC        1 <0>        0.03692
     15 H7          0.1229   -1.9760    0.8758 HC        1 <0>        0.03692
     16 H8          0.6621   -0.8527    2.1343 HC        1 <0>        0.03692
     17 H9          1.7996   -1.4312    0.9095 HC        1 <0>        0.03692
     18 H10         0.4007    1.2809   -4.1696 H1        1 <0>        0.03156
     19 H11        -0.0266   -0.4215   -3.8127 H1        1 <0>        0.03156
     20 H12         1.6585    0.1351   -3.6364 H1        1 <0>        0.03156
     21 H13        -1.2591    1.4583   -0.1528 HC        1 <0>        0.04470
     22 H14        -1.1370    0.8693    1.4933 HC        1 <0>        0.04470
     23 H15        -0.0368   -1.1531   -1.5836 H1        1 <0>        0.02657
     24 H16         1.6539   -0.6505   -1.4630 H1        1 <0>        0.02657
@<TRIPOS>BOND
     1    1    5 1
     2    2    7 1
     3    3    7 1
     4    4    8 1
     5    5    7 1
     6    6    7 1
     7    6    8 1
     8    1    9 1
     9    1   10 1
    10    1   11 1
    11    2   12 1
    12    2   13 1
    13    2   14 1
    14    3   15 1
    15    3   16 1
    16    3   17 1
    17    4   18 1
    18    4   19 1
    19    4   20 1
    20    5   21 1
    21    5   22 1
    22    6   23 1
    23    6   24 1
@<TRIPOS>SUBSTRUCTURE
     1 <0>         1 GROUP 0 A     ****
