@<TRIPOS>MOLECULE
AlkEthOH_c458
   30    29     1     0     0
SMALL
USER_CHARGES

@<TRIPOS>ATOM
      1 C1          0.4031    1.4351    2.1956 CT        1 <0>       -0.09108
      2 C2         -1.0135   -0.6381    2.1514 CT        1 <0>       -0.09108
      3 C3          5.4952    0.6523    4.3827 CT        1 <0>       -0.12084
      4 C4          5.7960   -1.2393    2.7604 CT        1 <0>       -0.12084
      5 C5          2.8113   -0.3362    3.0643 CT        1 <0>       -0.07585
      6 C6          1.3340   -0.7417    3.1451 CT        1 <0>       -0.07365
      7 C7          3.6403   -1.0846    4.1144 CT        1 <0>       -0.07086
      8 C8          0.4124   -0.0901    2.0960 CT        1 <0>       -0.06674
      9 C9          5.1577   -0.8095    4.0818 CT        1 <0>        0.15135
     10 O1          5.7594   -1.6130    5.1062 OH        1 <0>       -0.60436
     11 H1          0.0049    1.7789    3.1555 HC        1 <0>        0.03310
     12 H2         -0.2219    1.8663    1.4060 HC        1 <0>        0.03310
     13 H3          1.4136    1.8399    2.0787 HC        1 <0>        0.03310
     14 H4         -1.4818   -0.4111    3.1147 HC        1 <0>        0.03310
     15 H5         -1.0103   -1.7270    2.0310 HC        1 <0>        0.03310
     16 H6         -1.6414   -0.2211    1.3578 HC        1 <0>        0.03310
     17 H7          5.0408    0.9679    5.3292 HC        1 <0>        0.04203
     18 H8          6.5741    0.8211    4.4506 HC        1 <0>        0.04203
     19 H9          5.0875    1.3137    3.6097 HC        1 <0>        0.04203
     20 H10         5.5745   -2.2819    2.5137 HC        1 <0>        0.04203
     21 H11         5.4387   -0.6120    1.9353 HC        1 <0>        0.04203
     22 H12         6.8840   -1.1125    2.7941 HC        1 <0>        0.04203
     23 H13         2.9045    0.7421    3.2246 HC        1 <0>        0.04031
     24 H14         3.1979   -0.5585    2.0653 HC        1 <0>        0.04031
     25 H15         0.9518   -0.4970    4.1448 HC        1 <0>        0.04102
     26 H16         1.2582   -1.8325    3.0468 HC        1 <0>        0.04102
     27 H17         3.2576   -0.8416    5.1152 HC        1 <0>        0.05405
     28 H18         3.4754   -2.1651    4.0038 HC        1 <0>        0.05405
     29 H19         0.8229   -0.3496    1.1112 HC        1 <0>        0.04569
     30 H20         6.7102   -1.4428    5.0554 HO        1 <0>        0.39672
@<TRIPOS>BOND
     1    1    8 1
     2    2    8 1
     3    3    9 1
     4    4    9 1
     5    5    6 1
     6    5    7 1
     7    6    8 1
     8    7    9 1
     9    9   10 1
    10    1   11 1
    11    1   12 1
    12    1   13 1
    13    2   14 1
    14    2   15 1
    15    2   16 1
    16    3   17 1
    17    3   18 1
    18    3   19 1
    19    4   20 1
    20    4   21 1
    21    4   22 1
    22    5   23 1
    23    5   24 1
    24    6   25 1
    25    6   26 1
    26    7   27 1
    27    7   28 1
    28    8   29 1
    29   10   30 1
@<TRIPOS>SUBSTRUCTURE
     1 <0>         1 GROUP 0 A     ****
