@<TRIPOS>MOLECULE
AlkEthOH_c592
   22    21     1     0     0
SMALL
USER_CHARGES

@<TRIPOS>ATOM
      1 C1         -0.2018    0.0916    1.6597 CT        1 <0>       -0.10801
      2 C2         -0.0682    1.9035    3.4064 CT        1 <0>       -0.10801
      3 C3          2.9336    5.0131   -0.9282 CT        1 <0>        0.11575
      4 C4          1.5990    3.0791   -0.8946 CT        1 <0>        0.12544
      5 C5          0.4509    2.4072   -0.1663 CT        1 <0>        0.12937
      6 C6         -0.2337    1.5886    1.9275 CT        1 <0>        0.13831
      7 O1          1.8494    4.3457   -0.2977 OS        1 <0>       -0.41379
      8 O2          0.8123    2.2184    1.1940 OS        1 <0>       -0.41685
      9 H1          0.7352   -0.3542    2.0072 HC        1 <0>        0.04252
     10 H2         -1.0353   -0.4044    2.1687 HC        1 <0>        0.04252
     11 H3         -0.3156   -0.1205    0.5908 HC        1 <0>        0.04252
     12 H4          0.8720    1.5009    3.7956 HC        1 <0>        0.04252
     13 H5         -0.8966    1.4766    3.9820 HC        1 <0>        0.04252
     14 H6         -0.0864    2.9845    3.5836 HC        1 <0>        0.04252
     15 H7          3.0977    5.9798   -0.4457 H1        1 <0>        0.03193
     16 H8          2.7078    5.1564   -1.9879 H1        1 <0>        0.03193
     17 H9          3.8336    4.4016   -0.8290 H1        1 <0>        0.03193
     18 H10         1.3561    3.2414   -1.9492 H1        1 <0>        0.03749
     19 H11         2.5084    2.4766   -0.8141 H1        1 <0>        0.03749
     20 H12         0.2287    1.4268   -0.5992 H1        1 <0>        0.03770
     21 H13        -0.4437    3.0359   -0.1992 H1        1 <0>        0.03770
     22 H14        -1.1814    2.0037    1.5693 H1        1 <0>        0.03650
@<TRIPOS>BOND
     1    1    6 1
     2    2    6 1
     3    3    7 1
     4    4    5 1
     5    4    7 1
     6    5    8 1
     7    6    8 1
     8    1    9 1
     9    1   10 1
    10    1   11 1
    11    2   12 1
    12    2   13 1
    13    2   14 1
    14    3   15 1
    15    3   16 1
    16    3   17 1
    17    4   18 1
    18    4   19 1
    19    5   20 1
    20    5   21 1
    21    6   22 1
@<TRIPOS>SUBSTRUCTURE
     1 <0>         1 GROUP 0 A     ****
