@<TRIPOS>MOLECULE
AlkEthOH_r388
   25    25     1     0     0
SMALL
USER_CHARGES

@<TRIPOS>ATOM
      1 C1         -1.5089   -1.2474   -1.1138 CT        1 <0>       -0.07472
      2 C2         -1.1311   -1.3751    0.3614 CT        1 <0>       -0.07054
      3 C3         -1.3856    0.1611   -1.6886 CT        1 <0>       -0.10597
      4 C4          0.3619   -1.1547    0.6130 CT        1 <0>       -0.09764
      5 C5         -0.0125    0.7900   -1.4962 CT        1 <0>        0.13527
      6 C6          0.7918    0.3221    0.7524 CT        1 <0>        0.15256
      7 C7          2.3110    0.4503    0.5620 CT        1 <0>       -0.10171
      8 C8          0.4419    0.8386    2.1581 CT        1 <0>       -0.10171
      9 O1          0.1317    1.2150   -0.1482 OS        1 <0>       -0.41894
     10 H1         -0.8939   -1.9348   -1.7084 HC        1 <0>        0.03607
     11 H2         -2.5464   -1.5804   -1.2390 HC        1 <0>        0.03607
     12 H3         -1.7447   -0.7061    0.9738 HC        1 <0>        0.04485
     13 H4         -1.3779   -2.3973    0.6753 HC        1 <0>        0.04485
     14 H5         -1.6120    0.1154   -2.7605 HC        1 <0>        0.04849
     15 H6         -2.1469    0.7981   -1.2213 HC        1 <0>        0.04849
     16 H7          0.6505   -1.6954    1.5244 HC        1 <0>        0.04365
     17 H8          0.9256   -1.6358   -0.1972 HC        1 <0>        0.04365
     18 H9          0.7989    0.1318   -1.8231 H1        1 <0>        0.04297
     19 H10         0.0404    1.6945   -2.1119 H1        1 <0>        0.04297
     20 H11         2.5997    1.4921    0.6623 HC        1 <0>        0.04189
     21 H12         2.5814    0.0915   -0.4263 HC        1 <0>        0.04189
     22 H13         2.8195   -0.1424    1.3163 HC        1 <0>        0.04189
     23 H14         0.7478    1.8761    2.2453 HC        1 <0>        0.04189
     24 H15         0.9626    0.2411    2.8994 HC        1 <0>        0.04189
     25 H16        -0.6294    0.7597    2.3125 HC        1 <0>        0.04189
@<TRIPOS>BOND
     1    1    2 1
     2    1    3 1
     3    2    4 1
     4    3    5 1
     5    4    6 1
     6    5    9 1
     7    6    7 1
     8    6    8 1
     9    6    9 1
    10    1   10 1
    11    1   11 1
    12    2   12 1
    13    2   13 1
    14    3   14 1
    15    3   15 1
    16    4   16 1
    17    4   17 1
    18    5   18 1
    19    5   19 1
    20    7   20 1
    21    7   21 1
    22    7   22 1
    23    8   23 1
    24    8   24 1
    25    8   25 1
@<TRIPOS>SUBSTRUCTURE
     1 <0>         1 GROUP 0 A     ****
