@<TRIPOS>MOLECULE
AlkEthOH_c479
   30    29     1     0     0
SMALL
USER_CHARGES

@<TRIPOS>ATOM
      1 C1         -2.6891   -5.1652   -0.3812 CT        1 <0>       -0.09003
      2 C2         -3.8786   -6.0085   -2.4236 CT        1 <0>       -0.09003
      3 C3         -1.0214    0.8045   -2.3901 CT        1 <0>       -0.08627
      4 C4          0.4792   -1.2018   -2.4664 CT        1 <0>       -0.08627
      5 C5         -0.7910   -0.6603   -0.3744 CT        1 <0>       -0.08627
      6 C6         -2.9432   -3.6776   -2.4098 CT        1 <0>        0.13386
      7 C7         -2.0056   -1.5227   -2.4157 CT        1 <0>        0.13734
      8 C8         -2.7543   -5.1122   -1.9090 CT        1 <0>       -0.06891
      9 C9         -0.8419   -0.6460   -1.9115 CT        1 <0>       -0.05323
     10 O1         -1.8564   -2.8685   -1.9816 OS        1 <0>       -0.42218
     11 H1         -3.6214   -4.7957    0.0593 HC        1 <0>        0.03635
     12 H2         -1.8674   -4.5505    0.0022 HC        1 <0>        0.03635
     13 H3         -2.5399   -6.1903   -0.0267 HC        1 <0>        0.03635
     14 H4         -4.8514   -5.6594   -2.0616 HC        1 <0>        0.03635
     15 H5         -3.7439   -7.0386   -2.0772 HC        1 <0>        0.03635
     16 H6         -3.9092   -6.0200   -3.5186 HC        1 <0>        0.03635
     17 H7         -1.9565    1.2315   -2.0109 HC        1 <0>        0.03725
     18 H8         -1.0512    0.8581   -3.4844 HC        1 <0>        0.03725
     19 H9         -0.2000    1.4454   -2.0517 HC        1 <0>        0.03725
     20 H10         0.6395   -2.2368   -2.1439 HC        1 <0>        0.03725
     21 H11         0.4858   -1.1896   -3.5621 HC        1 <0>        0.03725
     22 H12         1.3337   -0.6084   -2.1219 HC        1 <0>        0.03725
     23 H13        -0.6635   -1.6762    0.0154 HC        1 <0>        0.03725
     24 H14        -1.7152   -0.2565    0.0546 HC        1 <0>        0.03725
     25 H15         0.0413   -0.0524   -0.0020 HC        1 <0>        0.03725
     26 H16        -2.9727   -3.6532   -3.5042 H1        1 <0>        0.02483
     27 H17        -3.8729   -3.2440   -2.0257 H1        1 <0>        0.02483
     28 H18        -2.0458   -1.5219   -3.5109 H1        1 <0>        0.02530
     29 H19        -2.9643   -1.1489   -2.0389 H1        1 <0>        0.02530
     30 H20        -1.7983   -5.4923   -2.2913 HC        1 <0>        0.05838
@<TRIPOS>BOND
     1    1    8 1
     2    2    8 1
     3    3    9 1
     4    4    9 1
     5    5    9 1
     6    6    8 1
     7    6   10 1
     8    7    9 1
     9    7   10 1
    10    1   11 1
    11    1   12 1
    12    1   13 1
    13    2   14 1
    14    2   15 1
    15    2   16 1
    16    3   17 1
    17    3   18 1
    18    3   19 1
    19    4   20 1
    20    4   21 1
    21    4   22 1
    22    5   23 1
    23    5   24 1
    24    5   25 1
    25    6   26 1
    26    6   27 1
    27    7   28 1
    28    7   29 1
    29    8   30 1
@<TRIPOS>SUBSTRUCTURE
     1 <0>         1 GROUP 0 A     ****
