@<TRIPOS>MOLECULE
AlkEthOH_r816
   32    32     1     0     0
SMALL
USER_CHARGES

@<TRIPOS>ATOM
      1 C1          0.3793   -1.8738    2.0037 CT        1 <0>       -0.08400
      2 C2          1.1548   -0.5817    2.3258 CT        1 <0>       -0.07831
      3 C3         -0.9794    0.8037   -1.0303 CT        1 <0>       -0.11910
      4 C4          0.0679   -2.0887    0.5238 CT        1 <0>        0.13801
      5 C5          0.6554    0.6764    1.6147 CT        1 <0>        0.13658
      6 C6         -1.0356   -0.7338   -1.1349 CT        1 <0>        0.15314
      7 C7          0.4200    1.3971   -0.7106 CT        1 <0>        0.15829
      8 C8         -2.3424   -1.1727   -1.7886 CT        1 <0>       -0.10606
      9 C9          0.2955    2.8714   -0.2959 CT        1 <0>       -0.10357
     10 C10         1.3024    1.3310   -1.9697 CT        1 <0>       -0.10357
     11 O1         -1.0431   -1.2625    0.1909 OS        1 <0>       -0.43163
     12 O2          1.1252    0.6337    0.2712 OS        1 <0>       -0.42873
     13 H1          0.9677   -2.7211    2.3748 HC        1 <0>        0.04766
     14 H2         -0.5602   -1.8593    2.5706 HC        1 <0>        0.04766
     15 H3          1.1104   -0.4238    3.4099 HC        1 <0>        0.04709
     16 H4          2.2087   -0.7437    2.0660 HC        1 <0>        0.04709
     17 H5         -1.3464    1.2561   -1.9609 HC        1 <0>        0.05378
     18 H6         -1.6779    1.1123   -0.2407 HC        1 <0>        0.05378
     19 H7          0.9521   -1.8848   -0.0898 H1        1 <0>        0.03713
     20 H8         -0.2335   -3.1273    0.3529 H1        1 <0>        0.03713
     21 H9         -0.4342    0.7513    1.6788 H1        1 <0>        0.03473
     22 H10         1.0908    1.5589    2.0956 H1        1 <0>        0.03473
     23 H11        -0.2041   -1.1257   -1.7302 H1        1 <0>        0.04765
     24 H12        -3.1885   -0.7956   -1.2155 HC        1 <0>        0.04134
     25 H13        -2.3926   -2.2603   -1.8227 HC        1 <0>        0.04134
     26 H14        -2.3983   -0.7821   -2.8040 HC        1 <0>        0.04134
     27 H15         1.2820    3.2683   -0.0767 HC        1 <0>        0.04275
     28 H16        -0.3308    2.9450    0.5879 HC        1 <0>        0.04275
     29 H17        -0.1522    3.4370   -1.1074 HC        1 <0>        0.04275
     30 H18         2.2790    1.7459   -1.7439 HC        1 <0>        0.04275
     31 H19         0.8359    1.9047   -2.7634 HC        1 <0>        0.04275
     32 H20         1.4070    0.2963   -2.2788 HC        1 <0>        0.04275
@<TRIPOS>BOND
     1    1    2 1
     2    1    4 1
     3    2    5 1
     4    3    6 1
     5    3    7 1
     6    4   11 1
     7    5   12 1
     8    6    8 1
     9    6   11 1
    10    7    9 1
    11    7   10 1
    12    7   12 1
    13    1   13 1
    14    1   14 1
    15    2   15 1
    16    2   16 1
    17    3   17 1
    18    3   18 1
    19    4   19 1
    20    4   20 1
    21    5   21 1
    22    5   22 1
    23    6   23 1
    24    8   24 1
    25    8   25 1
    26    8   26 1
    27    9   27 1
    28    9   28 1
    29    9   29 1
    30   10   30 1
    31   10   31 1
    32   10   32 1
@<TRIPOS>SUBSTRUCTURE
     1 <0>         1 GROUP 0 A     ****
