@<TRIPOS>MOLECULE
AlkEthOH_c1135
   18    17     1     0     0
SMALL
USER_CHARGES

@<TRIPOS>ATOM
      1 C1          0.8186   -0.3802    0.6691 CT        1 <0>       -0.09218
      2 C2          1.6185   -1.4417   -0.0691 CT        1 <0>       -0.07922
      3 C3          2.2938   -0.8687   -1.3148 CT        1 <0>       -0.07876
      4 C4          3.1237   -1.9294   -2.0346 CT        1 <0>       -0.08427
      5 C5          3.8336   -1.3564   -3.2530 CT        1 <0>        0.13226
      6 O1          4.5965   -2.3862   -3.8665 OH        1 <0>       -0.60222
      7 H1          1.4582    0.4571    0.9663 HC        1 <0>        0.03312
      8 H2          0.0111    0.0099    0.0414 HC        1 <0>        0.03312
      9 H3          0.3713   -0.8036    1.5739 HC        1 <0>        0.03312
     10 H4          0.9505   -2.2636   -0.3519 HC        1 <0>        0.04039
     11 H5          2.3753   -1.8563    0.6070 HC        1 <0>        0.04039
     12 H6          1.5317   -0.4729   -1.9971 HC        1 <0>        0.03860
     13 H7          2.9390   -0.0288   -1.0292 HC        1 <0>        0.03860
     14 H8          2.4843   -2.7645   -2.3467 HC        1 <0>        0.05493
     15 H9          3.8659   -2.3597   -1.3509 HC        1 <0>        0.05493
     16 H10         4.5106   -0.5456   -2.9657 H1        1 <0>        0.01952
     17 H11         3.1116   -0.9763   -3.9827 H1        1 <0>        0.01952
     18 H12         5.0348   -1.9896   -4.6369 HO        1 <0>        0.39815
@<TRIPOS>BOND
     1    1    2 1
     2    2    3 1
     3    3    4 1
     4    4    5 1
     5    5    6 1
     6    1    7 1
     7    1    8 1
     8    1    9 1
     9    2   10 1
    10    2   11 1
    11    3   12 1
    12    3   13 1
    13    4   14 1
    14    4   15 1
    15    5   16 1
    16    5   17 1
    17    6   18 1
@<TRIPOS>SUBSTRUCTURE
     1 <0>         1 GROUP 0 A     ****
