@<TRIPOS>MOLECULE
AlkEthOH_r54
   22    22     1     0     0
SMALL
USER_CHARGES

@<TRIPOS>ATOM
      1 C1          0.7738   -1.7245    0.9847 CT        1 <0>       -0.07502
      2 C2          0.8256   -0.2293    0.6859 CT        1 <0>       -0.07502
      3 C3          1.4773   -2.2078    2.2490 CT        1 <0>       -0.07002
      4 C4          0.7164    0.6798    1.9056 CT        1 <0>       -0.07002
      5 C5          2.8095   -1.5314    2.5507 CT        1 <0>       -0.10770
      6 C6          2.0672    0.9397    2.5671 CT        1 <0>       -0.10770
      7 C7          2.6557   -0.2347    3.3469 CT        1 <0>        0.13850
      8 O1          3.9582    0.1437    3.8016 OH        1 <0>       -0.59984
      9 H1         -0.2764   -2.0389    1.0442 HC        1 <0>        0.03716
     10 H2          1.1910   -2.2559    0.1198 HC        1 <0>        0.03716
     11 H3          1.7431    0.0010    0.1301 HC        1 <0>        0.03716
     12 H4         -0.0004    0.0001    0.0002 HC        1 <0>        0.03716
     13 H5          0.8028   -2.1020    3.1077 HC        1 <0>        0.04093
     14 H6          1.6477   -3.2866    2.1399 HC        1 <0>        0.04093
     15 H7          0.3290    1.6485    1.5655 HC        1 <0>        0.04093
     16 H8         -0.0095    0.2918    2.6291 HC        1 <0>        0.04093
     17 H9          3.4153   -2.2230    3.1518 HC        1 <0>        0.04637
     18 H10         3.3899   -1.3633    1.6352 HC        1 <0>        0.04637
     19 H11         2.7917    1.2841    1.8170 HC        1 <0>        0.04637
     20 H12         1.9586    1.7862    3.2587 HC        1 <0>        0.04637
     21 H13         2.0494   -0.4254    4.2403 H1        1 <0>        0.07416
     22 H14         4.4971    0.2676    3.0068 HO        1 <0>        0.39482
@<TRIPOS>BOND
     1    1    2 1
     2    1    3 1
     3    2    4 1
     4    3    5 1
     5    4    6 1
     6    5    7 1
     7    6    7 1
     8    7    8 1
     9    1    9 1
    10    1   10 1
    11    2   11 1
    12    2   12 1
    13    3   13 1
    14    3   14 1
    15    4   15 1
    16    4   16 1
    17    5   17 1
    18    5   18 1
    19    6   19 1
    20    6   20 1
    21    7   21 1
    22    8   22 1
@<TRIPOS>SUBSTRUCTURE
     1 <0>         1 GROUP 0 A     ****
