@<TRIPOS>MOLECULE
AlkEthOH_r302
   18    18     1     0     0
SMALL
USER_CHARGES

@<TRIPOS>ATOM
      1 C1          0.4392    1.0122   -1.1747 CT        1 <0>       -0.09667
      2 C2          0.9778   -0.3515   -0.7990 CT        1 <0>       -0.08884
      3 C3         -0.2920    1.4183    0.0919 CT        1 <0>        0.33217
      4 C4         -0.1681   -0.9173    0.0301 CT        1 <0>        0.33735
      5 C5          0.2985   -1.9384    1.0565 CT        1 <0>       -0.11093
      6 O1         -0.7648    0.2069    0.6980 OS        1 <0>       -0.49143
      7 O2          0.6180    2.0898    0.9561 OH        1 <0>       -0.61647
      8 O3         -1.1087   -1.5201   -0.8589 OH        1 <0>       -0.61548
      9 H1          1.2283    1.7089   -1.4713 HC        1 <0>        0.07249
     10 H2         -0.2710    0.9075   -2.0034 HC        1 <0>        0.07249
     11 H3          1.2227   -0.9560   -1.6775 HC        1 <0>        0.07133
     12 H4          1.8830   -0.2262   -0.1927 HC        1 <0>        0.07133
     13 H5         -1.1344    2.0840   -0.1211 H2        1 <0>        0.06485
     14 H6         -0.5529   -2.3150    1.6250 HC        1 <0>        0.05360
     15 H7          1.0071   -1.4792    1.7472 HC        1 <0>        0.05360
     16 H8          0.7866   -2.7764    0.5570 HC        1 <0>        0.05360
     17 H9          0.1181    2.3333    1.7513 HO        1 <0>        0.42111
     18 H10        -1.8232   -1.8697   -0.3055 HO        1 <0>        0.41590
@<TRIPOS>BOND
     1    1    2 1
     2    1    3 1
     3    2    4 1
     4    3    6 1
     5    3    7 1
     6    4    5 1
     7    4    6 1
     8    4    8 1
     9    1    9 1
    10    1   10 1
    11    2   11 1
    12    2   12 1
    13    3   13 1
    14    5   14 1
    15    5   15 1
    16    5   16 1
    17    7   17 1
    18    8   18 1
@<TRIPOS>SUBSTRUCTURE
     1 <0>         1 GROUP 0 A     ****
