@<TRIPOS>MOLECULE
AlkEthOH_c1144
   15    14     1     0     0
SMALL
USER_CHARGES

@<TRIPOS>ATOM
      1 C1         -0.0095   -0.6551    0.8768 CT        1 <0>       -0.09329
      2 C2          2.5593   -1.9227    4.8099 CT        1 <0>        0.11696
      3 C3          1.2444   -0.4434    1.7060 CT        1 <0>       -0.08425
      4 C4          1.2749   -1.3494    2.9273 CT        1 <0>        0.12771
      5 O1          2.4629   -1.0899    3.6622 OS        1 <0>       -0.42320
      6 H1         -0.0920   -1.6965    0.5497 HC        1 <0>        0.03482
      7 H2         -0.8996   -0.4128    1.4659 HC        1 <0>        0.03482
      8 H3         -0.0053   -0.0150   -0.0111 HC        1 <0>        0.03482
      9 H4          3.4824   -1.6961    5.3490 H1        1 <0>        0.03187
     10 H5          2.5527   -2.9713    4.5020 H1        1 <0>        0.03187
     11 H6          1.7033   -1.7309    5.4612 H1        1 <0>        0.03187
     12 H7          1.3083    0.6043    2.0234 HC        1 <0>        0.05381
     13 H8          2.1333   -0.6260    1.0902 HC        1 <0>        0.05381
     14 H9          0.4147   -1.1588    3.5770 H1        1 <0>        0.02419
     15 H10         1.2712   -2.4035    2.6320 H1        1 <0>        0.02419
@<TRIPOS>BOND
     1    1    3 1
     2    2    5 1
     3    3    4 1
     4    4    5 1
     5    1    6 1
     6    1    7 1
     7    1    8 1
     8    2    9 1
     9    2   10 1
    10    2   11 1
    11    3   12 1
    12    3   13 1
    13    4   14 1
    14    4   15 1
@<TRIPOS>SUBSTRUCTURE
     1 <0>         1 GROUP 0 A     ****
