@<TRIPOS>MOLECULE
AlkEthOH_r1025
   28    28     1     0     0
SMALL
USER_CHARGES

@<TRIPOS>ATOM
      1 C1          1.2952   -1.1859    0.1164 CT        1 <0>       -0.10584
      2 C2         -1.3277    0.3291   -0.8077 CT        1 <0>       -0.10502
      3 C3          0.9337   -1.3824   -1.3478 CT        1 <0>        0.13353
      4 C4         -0.4792    0.3982   -2.0768 CT        1 <0>        0.13389
      5 C5          0.1375   -0.7166    1.0239 CT        1 <0>       -0.05131
      6 C6         -0.6222    0.5794    0.5556 CT        1 <0>       -0.03562
      7 C7          0.6859   -0.6245    2.4604 CT        1 <0>       -0.09290
      8 C8         -1.7529    0.9043    1.5681 CT        1 <0>       -0.09015
      9 C9          0.2940    1.8159    0.4867 CT        1 <0>       -0.09015
     10 O1          0.8359   -0.1174   -1.9789 OS        1 <0>       -0.42092
     11 H1          1.6650   -2.1459    0.4999 HC        1 <0>        0.05043
     12 H2          2.1272   -0.4747    0.1922 HC        1 <0>        0.05043
     13 H3         -2.1505    1.0445   -0.9436 HC        1 <0>        0.04422
     14 H4         -1.8178   -0.6535   -0.7693 HC        1 <0>        0.04422
     15 H5          1.7580   -1.9116   -1.8383 H1        1 <0>        0.04303
     16 H6          0.0337   -1.9921   -1.4881 H1        1 <0>        0.04303
     17 H7         -0.9974   -0.1165   -2.8947 H1        1 <0>        0.04093
     18 H8         -0.3816    1.4445   -2.3876 H1        1 <0>        0.04093
     19 H9         -0.5985   -1.5342    1.0344 HC        1 <0>        0.04009
     20 H10         1.4213    0.1708    2.5104 HC        1 <0>        0.03470
     21 H11         1.1481   -1.5687    2.7262 HC        1 <0>        0.03470
     22 H12        -0.1315   -0.4117    3.1405 HC        1 <0>        0.03470
     23 H13        -1.3070    1.0864    2.5354 HC        1 <0>        0.03718
     24 H14        -2.4244    0.0591    1.6171 HC        1 <0>        0.03718
     25 H15        -2.2796    1.7835    1.2255 HC        1 <0>        0.03718
     26 H16         0.7688    1.9612    1.4507 HC        1 <0>        0.03718
     27 H17        -0.3017    2.6866    0.2362 HC        1 <0>        0.03718
     28 H18         1.0499    1.6567   -0.2744 HC        1 <0>        0.03718
@<TRIPOS>BOND
     1    1    3 1
     2    1    5 1
     3    2    4 1
     4    2    6 1
     5    3   10 1
     6    4   10 1
     7    5    6 1
     8    5    7 1
     9    6    8 1
    10    6    9 1
    11    1   11 1
    12    1   12 1
    13    2   13 1
    14    2   14 1
    15    3   15 1
    16    3   16 1
    17    4   17 1
    18    4   18 1
    19    5   19 1
    20    7   20 1
    21    7   21 1
    22    7   22 1
    23    8   23 1
    24    8   24 1
    25    8   25 1
    26    9   26 1
    27    9   27 1
    28    9   28 1
@<TRIPOS>SUBSTRUCTURE
     1 <0>         1 GROUP 0 A     ****
