@<TRIPOS>MOLECULE
AlkEthOH_c585
   30    29     1     0     0
SMALL
USER_CHARGES

@<TRIPOS>ATOM
      1 C1          2.2411    2.3498   -6.2867 CT        1 <0>       -0.10779
      2 C2          0.0069    1.4737   -7.0564 CT        1 <0>       -0.10779
      3 C3          1.0538    0.4723    0.0377 CT        1 <0>       -0.08735
      4 C4          2.4557    2.3203   -0.8917 CT        1 <0>       -0.08735
      5 C5         -0.0231    2.6159   -0.6621 CT        1 <0>       -0.08735
      6 C6          0.8906    1.0000   -2.4043 CT        1 <0>       -0.07360
      7 C7          0.9664    1.9760   -3.5749 CT        1 <0>        0.13109
      8 C8          0.7863    2.1077   -5.9143 CT        1 <0>        0.14024
      9 C9          1.0941    1.6140   -0.9966 CT        1 <0>       -0.05356
     10 O1          0.7299    1.2553   -4.7797 OS        1 <0>       -0.42415
     11 H1          2.7385    1.4178   -6.5716 HC        1 <0>        0.04253
     12 H2          2.3081    3.0526   -7.1242 HC        1 <0>        0.04253
     13 H3          2.7918    2.8005   -5.4536 HC        1 <0>        0.04253
     14 H4          0.4510    0.5208   -7.3597 HC        1 <0>        0.04253
     15 H5         -0.0113    2.1430   -7.9232 HC        1 <0>        0.04253
     16 H6         -1.0367    1.2990   -6.7721 HC        1 <0>        0.04253
     17 H7          0.0980   -0.0623   -0.0000 HC        1 <0>        0.03473
     18 H8          1.1824    0.8561    1.0560 HC        1 <0>        0.03473
     19 H9          1.8502   -0.2582   -0.1447 HC        1 <0>        0.03473
     20 H10         2.5304    3.1430   -1.6116 HC        1 <0>        0.03473
     21 H11         3.2774    1.6240   -1.0965 HC        1 <0>        0.03473
     22 H12         2.6235    2.7316    0.1092 HC        1 <0>        0.03473
     23 H13        -0.0425    3.4529   -1.3676 HC        1 <0>        0.03473
     24 H14         0.1158    3.0405    0.3389 HC        1 <0>        0.03473
     25 H15        -1.0063    2.1330   -0.6842 HC        1 <0>        0.03473
     26 H16        -0.0813    0.4885   -2.4453 HC        1 <0>        0.05353
     27 H17         1.6323    0.2061   -2.5697 HC        1 <0>        0.05353
     28 H18         0.2061    2.7574   -3.4954 H1        1 <0>        0.02558
     29 H19         1.9541    2.4386   -3.6479 H1        1 <0>        0.02558
     30 H20         0.3178    3.0571   -5.6349 H1        1 <0>        0.03164
@<TRIPOS>BOND
     1    1    8 1
     2    2    8 1
     3    3    9 1
     4    4    9 1
     5    5    9 1
     6    6    7 1
     7    6    9 1
     8    7   10 1
     9    8   10 1
    10    1   11 1
    11    1   12 1
    12    1   13 1
    13    2   14 1
    14    2   15 1
    15    2   16 1
    16    3   17 1
    17    3   18 1
    18    3   19 1
    19    4   20 1
    20    4   21 1
    21    4   22 1
    22    5   23 1
    23    5   24 1
    24    5   25 1
    25    6   26 1
    26    6   27 1
    27    7   28 1
    28    7   29 1
    29    8   30 1
@<TRIPOS>SUBSTRUCTURE
     1 <0>         1 GROUP 0 A     ****
