@<TRIPOS>MOLECULE
AlkEthOH_r52
   26    26     1     0     0
SMALL
USER_CHARGES

@<TRIPOS>ATOM
      1 C1         -0.5461    0.7877    0.5365 CT        1 <0>       -0.07586
      2 C2         -1.9932    0.7249    0.0417 CT        1 <0>       -0.07574
      3 C3         -0.3686    0.5256    2.0329 CT        1 <0>       -0.07148
      4 C4         -2.9366    1.8335    0.5153 CT        1 <0>       -0.07148
      5 C5         -0.1278    1.7746    2.8789 CT        1 <0>       -0.10527
      6 C6         -3.2794    1.7742    2.0025 CT        1 <0>       -0.10527
      7 C7         -1.0403    2.9758    2.6243 CT        1 <0>        0.14985
      8 C8         -2.5326    2.7666    2.9002 CT        1 <0>        0.14985
      9 O1         -0.6039    4.0399    3.4850 OH        1 <0>       -0.59809
     10 O2         -2.6994    2.3502    4.2594 OH        1 <0>       -0.59809
     11 H1         -0.0003   -0.0004    0.0001 HC        1 <0>        0.03843
     12 H2         -0.0747    1.7288    0.2329 HC        1 <0>        0.03843
     13 H3         -1.9672    0.7620   -1.0552 HC        1 <0>        0.03843
     14 H4         -2.4226   -0.2522    0.2973 HC        1 <0>        0.03843
     15 H5         -1.2008   -0.0596    2.4358 HC        1 <0>        0.04202
     16 H6          0.5139   -0.1160    2.1619 HC        1 <0>        0.04202
     17 H7         -2.5589    2.8192    0.2236 HC        1 <0>        0.04202
     18 H8         -3.8742    1.7024   -0.0415 HC        1 <0>        0.04202
     19 H9         -0.1595    1.4987    3.9410 HC        1 <0>        0.04884
     20 H10         0.9081    2.1035    2.7143 HC        1 <0>        0.04884
     21 H11        -4.3493    2.0047    2.1122 HC        1 <0>        0.04884
     22 H12        -3.2001    0.7516    2.3884 HC        1 <0>        0.04884
     23 H13        -0.8954    3.3484    1.6053 H1        1 <0>        0.04296
     24 H14        -3.0312    3.7408    2.8202 H1        1 <0>        0.04296
     25 H15         0.3130    4.2212    3.2384 HO        1 <0>        0.39925
     26 H16        -3.6523    2.3603    4.4307 HO        1 <0>        0.39925
@<TRIPOS>BOND
     1    1    2 1
     2    1    3 1
     3    2    4 1
     4    3    5 1
     5    4    6 1
     6    5    7 1
     7    6    8 1
     8    7    8 1
     9    7    9 1
    10    8   10 1
    11    1   11 1
    12    1   12 1
    13    2   13 1
    14    2   14 1
    15    3   15 1
    16    3   16 1
    17    4   17 1
    18    4   18 1
    19    5   19 1
    20    5   20 1
    21    6   21 1
    22    6   22 1
    23    7   23 1
    24    8   24 1
    25    9   25 1
    26   10   26 1
@<TRIPOS>SUBSTRUCTURE
     1 <0>         1 GROUP 0 A     ****
