@<TRIPOS>MOLECULE
AlkEthOH_c173
   25    24     1     0     0
SMALL
USER_CHARGES

@<TRIPOS>ATOM
      1 C1         -0.7980   -0.6513   -0.3742 CT        1 <0>       -0.08559
      2 C2         -1.0504    0.7940   -2.4065 CT        1 <0>       -0.08559
      3 C3          0.4975   -1.1771   -2.4496 CT        1 <0>       -0.08559
      4 C4         -3.1158   -2.3319   -5.8290 CT        1 <0>        0.13056
      5 C5         -3.1075   -2.3651   -4.3128 CT        1 <0>        0.12004
      6 C6         -2.0056   -1.5227   -2.4157 CT        1 <0>        0.13543
      7 C7         -0.8419   -0.6460   -1.9115 CT        1 <0>       -0.05389
      8 O1         -3.3490   -0.9974   -6.2627 OH        1 <0>       -0.59564
      9 O2         -2.0610   -1.5301   -3.8366 OS        1 <0>       -0.42011
     10 H1         -0.6501   -1.6659    0.0121 HC        1 <0>        0.03735
     11 H2         -1.7337   -0.2679    0.0485 HC        1 <0>        0.03735
     12 H3          0.0162   -0.0261    0.0081 HC        1 <0>        0.03735
     13 H4         -1.0866    0.8348   -3.5010 HC        1 <0>        0.03735
     14 H5         -1.9892    1.2123   -2.0264 HC        1 <0>        0.03735
     15 H6         -0.2362    1.4481   -2.0747 HC        1 <0>        0.03735
     16 H7          0.5146   -1.1923   -3.5449 HC        1 <0>        0.03735
     17 H8          0.6840   -2.2001   -2.1031 HC        1 <0>        0.03735
     18 H9          1.3331   -0.5543   -2.1108 HC        1 <0>        0.03735
     19 H10        -3.9113   -2.9655   -6.2331 H1        1 <0>        0.03677
     20 H11        -2.1490   -2.6567   -6.2244 H1        1 <0>        0.03677
     21 H12        -2.9302   -3.3793   -3.9413 H1        1 <0>        0.03787
     22 H13        -4.0545   -1.9876   -3.9163 H1        1 <0>        0.03787
     23 H14        -2.9646   -1.1479   -2.0407 H1        1 <0>        0.02637
     24 H15        -1.8872   -2.5577   -2.0754 H1        1 <0>        0.02637
     25 H16        -3.3476   -1.0152   -7.2331 HO        1 <0>        0.40221
@<TRIPOS>BOND
     1    1    7 1
     2    2    7 1
     3    3    7 1
     4    4    5 1
     5    4    8 1
     6    5    9 1
     7    6    7 1
     8    6    9 1
     9    1   10 1
    10    1   11 1
    11    1   12 1
    12    2   13 1
    13    2   14 1
    14    2   15 1
    15    3   16 1
    16    3   17 1
    17    3   18 1
    18    4   19 1
    19    4   20 1
    20    5   21 1
    21    5   22 1
    22    6   23 1
    23    6   24 1
    24    8   25 1
@<TRIPOS>SUBSTRUCTURE
     1 <0>         1 GROUP 0 A     ****
