@<TRIPOS>MOLECULE
AlkEthOH_r525
   17    17     1     0     0
SMALL
USER_CHARGES

@<TRIPOS>ATOM
      1 C1         -0.7441    0.3693   -0.9456 CT        1 <0>       -0.10369
      2 C2         -0.7243   -1.1415   -1.0766 CT        1 <0>        0.12750
      3 C3         -0.0220   -0.5892    1.0814 CT        1 <0>        0.10138
      4 C4          0.2473    0.6009    0.1756 CT        1 <0>        0.11938
      5 C5          0.1011    1.9419    0.8740 CT        1 <0>       -0.11564
      6 O1         -0.4342   -1.6700    0.2249 OS        1 <0>       -0.42415
      7 O2          1.5763    0.4887   -0.3337 OH        1 <0>       -0.59281
      8 H1         -0.4778    0.8567   -1.8883 HC        1 <0>        0.06706
      9 H2         -1.7483    0.6963   -0.6505 HC        1 <0>        0.06706
     10 H3         -1.6774   -1.5426   -1.4327 H1        1 <0>        0.05433
     11 H4          0.0677   -1.4725   -1.7567 H1        1 <0>        0.05433
     12 H5          0.8580   -0.9127    1.6452 H1        1 <0>        0.05130
     13 H6         -0.8453   -0.4001    1.7785 H1        1 <0>        0.05130
     14 H7          0.8454    2.0376    1.6667 HC        1 <0>        0.04732
     15 H8         -0.8934    2.0311    1.3150 HC        1 <0>        0.04732
     16 H9          0.2423    2.7561    0.1608 HC        1 <0>        0.04732
     17 H10         2.1708    0.6437    0.4158 HO        1 <0>        0.40069
@<TRIPOS>BOND
     1    1    2 1
     2    1    4 1
     3    2    6 1
     4    3    4 1
     5    3    6 1
     6    4    5 1
     7    4    7 1
     8    1    8 1
     9    1    9 1
    10    2   10 1
    11    2   11 1
    12    3   12 1
    13    3   13 1
    14    5   14 1
    15    5   15 1
    16    5   16 1
    17    7   17 1
@<TRIPOS>SUBSTRUCTURE
     1 <0>         1 GROUP 0 A     ****
