@<TRIPOS>MOLECULE
AlkEthOH_c58
   31    30     1     0     0
SMALL
USER_CHARGES

@<TRIPOS>ATOM
      1 C1         -1.4903   -0.2811    2.6709 CT        1 <0>       -0.10455
      2 C2          1.4996   -0.0244    1.9394 CT        1 <0>       -0.08876
      3 C3          0.0661    1.7458    0.9514 CT        1 <0>       -0.08876
      4 C4          0.9430   -0.7588   -2.9240 CT        1 <0>       -0.12366
      5 C5         -0.9032    0.6857   -2.0661 CT        1 <0>       -0.12366
      6 C6          0.9599   -0.1743   -0.4869 CT        1 <0>       -0.06350
      7 C7         -0.9041   -0.5888    1.2936 CT        1 <0>        0.15877
      8 C8          0.3648    0.2316    0.9100 CT        1 <0>       -0.05692
      9 C9          0.0493   -0.4531   -1.7103 CT        1 <0>        0.15529
     10 O1         -0.6241   -1.9897    1.2778 OH        1 <0>       -0.60828
     11 O2         -0.7221   -1.6293   -1.4610 OH        1 <0>       -0.61762
     12 H1         -0.7641   -0.4363    3.4728 HC        1 <0>        0.03974
     13 H2         -2.3842   -0.8786    2.8745 HC        1 <0>        0.03974
     14 H3         -1.8142    0.7655    2.7106 HC        1 <0>        0.03974
     15 H4          1.7695   -1.0868    1.9680 HC        1 <0>        0.03632
     16 H5          2.4110    0.5290    1.6905 HC        1 <0>        0.03632
     17 H6          1.1985    0.2663    2.9516 HC        1 <0>        0.03632
     18 H7         -0.7303    2.0145    0.2482 HC        1 <0>        0.03632
     19 H8          0.9465    2.3359    0.6723 HC        1 <0>        0.03632
     20 H9         -0.2326    2.0827    1.9461 HC        1 <0>        0.03632
     21 H10         1.6418   -1.5742   -2.7037 HC        1 <0>        0.04359
     22 H11         1.5590    0.1099   -3.1836 HC        1 <0>        0.04359
     23 H12         0.3501   -1.0400   -3.8006 HC        1 <0>        0.04359
     24 H13        -1.5547    0.9261   -1.2171 HC        1 <0>        0.04359
     25 H14        -1.5420    0.4293   -2.9168 HC        1 <0>        0.04359
     26 H15        -0.3606    1.6107   -2.2795 HC        1 <0>        0.04359
     27 H16         1.5553   -1.0860   -0.3281 HC        1 <0>        0.05311
     28 H17         1.6853    0.6005   -0.7754 HC        1 <0>        0.05311
     29 H18        -1.7008   -0.4049    0.5650 H1        1 <0>        0.04070
     30 H19        -1.4696   -2.4384    1.4274 HO        1 <0>        0.41516
     31 H20        -1.2383   -1.7924   -2.2645 HO        1 <0>        0.40089
@<TRIPOS>BOND
     1    1    7 1
     2    2    8 1
     3    3    8 1
     4    4    9 1
     5    5    9 1
     6    6    8 1
     7    6    9 1
     8    7    8 1
     9    7   10 1
    10    9   11 1
    11    1   12 1
    12    1   13 1
    13    1   14 1
    14    2   15 1
    15    2   16 1
    16    2   17 1
    17    3   18 1
    18    3   19 1
    19    3   20 1
    20    4   21 1
    21    4   22 1
    22    4   23 1
    23    5   24 1
    24    5   25 1
    25    5   26 1
    26    6   27 1
    27    6   28 1
    28    7   29 1
    29   10   30 1
    30   11   31 1
@<TRIPOS>SUBSTRUCTURE
     1 <0>         1 GROUP 0 A     ****
