@<TRIPOS>MOLECULE
AlkEthOH_c352
   20    19     1     0     0
SMALL
USER_CHARGES

@<TRIPOS>ATOM
      1 C1          1.6290    0.8206    1.2396 CT        1 <0>       -0.08691
      2 C2          1.7268    0.0722   -1.1489 CT        1 <0>       -0.08691
      3 C3         -1.8625   -1.5125    0.4976 CT        1 <0>        0.33217
      4 C4          0.9280    0.8779   -0.1224 CT        1 <0>       -0.08120
      5 C5         -0.5329    0.3894   -0.0494 CT        1 <0>        0.33960
      6 O1         -2.4974   -1.6315   -0.7673 OH        1 <0>       -0.63454
      7 O2         -1.2504    1.2632    0.8200 OH        1 <0>       -0.63387
      8 O3         -0.5522   -0.9625    0.4126 OS        1 <0>       -0.40575
      9 H1          1.6736   -0.2055    1.6183 HC        1 <0>        0.04118
     10 H2          1.0848    1.4203    1.9774 HC        1 <0>        0.04118
     11 H3          2.6521    1.2074    1.1842 HC        1 <0>        0.04118
     12 H4          1.7601   -0.9862   -0.8698 HC        1 <0>        0.04118
     13 H5          2.7568    0.4338   -1.2344 HC        1 <0>        0.04118
     14 H6          1.2639    0.1408   -2.1392 HC        1 <0>        0.04118
     15 H7         -2.4959   -0.9440    1.1873 H2        1 <0>        0.04882
     16 H8         -1.7603   -2.5233    0.9027 H2        1 <0>        0.04882
     17 H9          0.9196    1.9293   -0.4390 HC        1 <0>        0.03947
     18 H10        -0.9743    0.4558   -1.0516 H2        1 <0>        0.04966
     19 H11        -3.3785   -2.0122   -0.6133 HO        1 <0>        0.41147
     20 H12        -1.1976    2.1565    0.4401 HO        1 <0>        0.41209
@<TRIPOS>BOND
     1    1    4 1
     2    2    4 1
     3    3    6 1
     4    3    8 1
     5    4    5 1
     6    5    7 1
     7    5    8 1
     8    1    9 1
     9    1   10 1
    10    1   11 1
    11    2   12 1
    12    2   13 1
    13    2   14 1
    14    3   15 1
    15    3   16 1
    16    4   17 1
    17    5   18 1
    18    6   19 1
    19    7   20 1
@<TRIPOS>SUBSTRUCTURE
     1 <0>         1 GROUP 0 A     ****
