@<TRIPOS>MOLECULE
AlkEthOH_c1255
   20    19     1     0     0
SMALL
USER_CHARGES

@<TRIPOS>ATOM
      1 C1         -0.4849   -0.4896   -3.2700 CT        1 <0>       -0.09806
      2 C2         -0.5346    1.5294    3.5516 CT        1 <0>        0.12079
      3 C3          0.2608   -0.6822   -1.9667 CT        1 <0>        0.13818
      4 C4         -0.4530    0.8641    1.2992 CT        1 <0>        0.09269
      5 C5          0.2970   -0.0144    0.3070 CT        1 <0>        0.34267
      6 O1          1.6451    0.4403    0.2666 OH        1 <0>       -0.62774
      7 O2          0.1492    0.7482    2.5809 OS        1 <0>       -0.43811
      8 O3         -0.3524    0.1127   -0.9607 OS        1 <0>       -0.42736
      9 H1         -1.5296   -0.7971   -3.1709 HC        1 <0>        0.04447
     10 H2         -0.4532    0.5596   -3.5815 HC        1 <0>        0.04447
     11 H3         -0.0192   -1.0736   -4.0708 HC        1 <0>        0.04447
     12 H4         -0.0452    1.4161    4.5221 H1        1 <0>        0.03724
     13 H5         -1.5755    1.2026    3.6162 H1        1 <0>        0.03724
     14 H6         -0.5023    2.5790    3.2501 H1        1 <0>        0.03724
     15 H7          1.3049   -0.3728   -2.0726 H1        1 <0>        0.03709
     16 H8          0.2274   -1.7308   -1.6565 H1        1 <0>        0.03709
     17 H9         -0.4253    1.9141    0.9895 H1        1 <0>        0.05292
     18 H10        -1.5012    0.5559    1.3799 H1        1 <0>        0.05292
     19 H11         0.2650   -1.0589    0.6418 H2        1 <0>        0.04456
     20 H12         2.0062    0.3514    1.1647 HO        1 <0>        0.42723
@<TRIPOS>BOND
     1    1    3 1
     2    2    7 1
     3    3    8 1
     4    4    5 1
     5    4    7 1
     6    5    6 1
     7    5    8 1
     8    1    9 1
     9    1   10 1
    10    1   11 1
    11    2   12 1
    12    2   13 1
    13    2   14 1
    14    3   15 1
    15    3   16 1
    16    4   17 1
    17    4   18 1
    18    5   19 1
    19    6   20 1
@<TRIPOS>SUBSTRUCTURE
     1 <0>         1 GROUP 0 A     ****
