@<TRIPOS>MOLECULE
AlkEthOH_c717
   19    18     1     0     0
SMALL
USER_CHARGES

@<TRIPOS>ATOM
      1 C1          0.7465   -0.5932   -0.7000 CT        1 <0>       -0.13059
      2 C2          3.7097    1.9169   -0.4603 CT        1 <0>       -0.08277
      3 C3          2.3001    1.3971   -0.7488 CT        1 <0>       -0.07151
      4 C4          3.8671    3.3718   -0.8805 CT        1 <0>        0.13171
      5 C5          2.1410   -0.0788   -0.3694 CT        1 <0>        0.13984
      6 O1          5.1875    3.7982   -0.5741 OH        1 <0>       -0.59962
      7 O2          3.0978   -0.8704   -1.0685 OH        1 <0>       -0.60008
      8 H1          0.5265   -0.4767   -1.7669 HC        1 <0>        0.04288
      9 H2         -0.0192   -0.0642   -0.1246 HC        1 <0>        0.04288
     10 H3          0.6726   -1.6635   -0.4789 HC        1 <0>        0.04288
     11 H4          4.4595    1.3092   -0.9815 HC        1 <0>        0.06417
     12 H5          3.9368    1.8218    0.6088 HC        1 <0>        0.06417
     13 H6          1.5688    1.9986   -0.1954 HC        1 <0>        0.04635
     14 H7          2.0918    1.5271   -1.8183 HC        1 <0>        0.04635
     15 H8          3.1609    4.0125   -0.3428 H1        1 <0>        0.01802
     16 H9          3.7050    3.4872   -1.9569 H1        1 <0>        0.01802
     17 H10         2.3270   -0.2104    0.7021 H1        1 <0>        0.03206
     18 H11         5.2545    4.7258   -0.8532 HO        1 <0>        0.39719
     19 H12         2.9779   -1.7829   -0.7626 HO        1 <0>        0.39805
@<TRIPOS>BOND
     1    1    5 1
     2    2    3 1
     3    2    4 1
     4    3    5 1
     5    4    6 1
     6    5    7 1
     7    1    8 1
     8    1    9 1
     9    1   10 1
    10    2   11 1
    11    2   12 1
    12    3   13 1
    13    3   14 1
    14    4   15 1
    15    4   16 1
    16    5   17 1
    17    6   18 1
    18    7   19 1
@<TRIPOS>SUBSTRUCTURE
     1 <0>         1 GROUP 0 A     ****
