@<TRIPOS>MOLECULE
AlkEthOH_r1125
   30    30     1     0     0
SMALL
USER_CHARGES

@<TRIPOS>ATOM
      1 C1         -0.4786    2.1706   -0.3327 CT        1 <0>       -0.07559
      2 C2         -1.4011    1.3160   -1.2021 CT        1 <0>       -0.06145
      3 C3          0.9858    2.2129   -0.7814 CT        1 <0>       -0.09292
      4 C4         -1.1668   -0.1970   -1.2285 CT        1 <0>       -0.12495
      5 C5          1.8978    1.2853    0.0165 CT        1 <0>        0.13820
      6 C6          1.2093   -0.9822    0.4822 CT        1 <0>        0.33797
      7 C7         -1.1906   -0.9476    0.1198 CT        1 <0>        0.35851
      8 C8          2.1354   -1.2075    1.6746 CT        1 <0>       -0.11656
      9 C9         -2.4620   -0.6289    0.9141 CT        1 <0>       -0.11455
     10 O1          1.7709   -0.0526   -0.4446 OS        1 <0>       -0.45346
     11 O2         -0.0844   -0.6193    0.9697 OS        1 <0>       -0.43776
     12 O3         -1.2155   -2.3495   -0.1876 OH        1 <0>       -0.63308
     13 H1         -0.8642    3.1975   -0.3966 HC        1 <0>        0.04423
     14 H2         -0.5643    1.8969    0.7236 HC        1 <0>        0.04423
     15 H3         -2.4350    1.5037   -0.8860 HC        1 <0>        0.03441
     16 H4         -1.3457    1.6835   -2.2352 HC        1 <0>        0.03441
     17 H5          1.0654    2.0022   -1.8540 HC        1 <0>        0.04733
     18 H6          1.3492    3.2364   -0.6246 HC        1 <0>        0.04733
     19 H7         -1.9445   -0.6329   -1.8724 HC        1 <0>        0.05934
     20 H8         -0.2348   -0.4065   -1.7639 HC        1 <0>        0.05934
     21 H9          2.9373    1.5781   -0.1672 H1        1 <0>        0.04159
     22 H10         1.7168    1.3928    1.0907 H1        1 <0>        0.04159
     23 H11         1.1501   -1.9391   -0.0479 H2        1 <0>        0.09817
     24 H12         2.2350   -0.2853    2.2451 HC        1 <0>        0.05178
     25 H13         3.1191   -1.5180    1.3253 HC        1 <0>        0.05178
     26 H14         1.7254   -1.9830    2.3200 HC        1 <0>        0.05178
     27 H15        -2.4482   -1.1716    1.8558 HC        1 <0>        0.05196
     28 H16        -3.3347   -0.9270    0.3387 HC        1 <0>        0.05196
     29 H17        -2.5084    0.4387    1.1134 HC        1 <0>        0.05196
     30 H18        -2.0200   -2.4943   -0.7041 HO        1 <0>        0.41245
@<TRIPOS>BOND
     1    1    2 1
     2    1    3 1
     3    2    4 1
     4    3    5 1
     5    4    7 1
     6    5   10 1
     7    6    8 1
     8    6   10 1
     9    6   11 1
    10    7    9 1
    11    7   11 1
    12    7   12 1
    13    1   13 1
    14    1   14 1
    15    2   15 1
    16    2   16 1
    17    3   17 1
    18    3   18 1
    19    4   19 1
    20    4   20 1
    21    5   21 1
    22    5   22 1
    23    6   23 1
    24    8   24 1
    25    8   25 1
    26    8   26 1
    27    9   27 1
    28    9   28 1
    29    9   29 1
    30   12   30 1
@<TRIPOS>SUBSTRUCTURE
     1 <0>         1 GROUP 0 A     ****
