@<TRIPOS>MOLECULE
AlkEthOH_c868
   27    26     1     0     0
SMALL
USER_CHARGES

@<TRIPOS>ATOM
      1 C1         -1.3209   -3.8029    0.4376 CT        1 <0>       -0.12544
      2 C2          1.7722    2.1351   -0.1814 CT        1 <0>       -0.12533
      3 C3          0.0826    2.9136   -1.8551 CT        1 <0>       -0.12533
      4 C4         -0.2264    0.6576   -0.7974 CT        1 <0>       -0.09821
      5 C5         -0.7440   -2.5229    1.0234 CT        1 <0>        0.34429
      6 C6         -0.2159   -0.2678    0.4288 CT        1 <0>        0.34829
      7 C7          0.2949    2.0950   -0.5774 CT        1 <0>        0.15340
      8 O1          0.5496   -2.7818    1.5605 OH        1 <0>       -0.63397
      9 O2         -1.0365    0.2957    1.4447 OH        1 <0>       -0.61440
     10 O3         -0.4658    2.7374    0.4469 OH        1 <0>       -0.60179
     11 O4         -0.7135   -1.5370   -0.0093 OS        1 <0>       -0.45893
     12 H1         -0.6966   -4.1685   -0.3857 HC        1 <0>        0.05092
     13 H2         -2.3229   -3.6294    0.0327 HC        1 <0>        0.05092
     14 H3         -1.3665   -4.5939    1.1926 HC        1 <0>        0.05092
     15 H4          1.9600    1.5586    0.7301 HC        1 <0>        0.04539
     16 H5          2.3992    1.7271   -0.9830 HC        1 <0>        0.04539
     17 H6          2.1190    3.1622   -0.0263 HC        1 <0>        0.04539
     18 H7         -0.9706    2.8995   -2.1588 HC        1 <0>        0.04539
     19 H8          0.3912    3.9558   -1.7235 HC        1 <0>        0.04539
     20 H9          0.6490    2.4863   -2.6906 HC        1 <0>        0.04539
     21 H10         0.3474    0.1753   -1.6000 HC        1 <0>        0.06812
     22 H11        -1.2637    0.7183   -1.1565 HC        1 <0>        0.06812
     23 H12        -1.3903   -2.1860    1.8410 H2        1 <0>        0.05094
     24 H13         0.8081   -0.3776    0.8024 H2        1 <0>        0.09170
     25 H14         0.4617   -3.4549    2.2559 HO        1 <0>        0.40928
     26 H15        -1.9346    0.3742    1.0814 HO        1 <0>        0.42009
     27 H16        -0.1378    3.6475    0.5003 HO        1 <0>        0.40407
@<TRIPOS>BOND
     1    1    5 1
     2    2    7 1
     3    3    7 1
     4    4    6 1
     5    4    7 1
     6    5    8 1
     7    5   11 1
     8    6    9 1
     9    6   11 1
    10    7   10 1
    11    1   12 1
    12    1   13 1
    13    1   14 1
    14    2   15 1
    15    2   16 1
    16    2   17 1
    17    3   18 1
    18    3   19 1
    19    3   20 1
    20    4   21 1
    21    4   22 1
    22    5   23 1
    23    6   24 1
    24    8   25 1
    25    9   26 1
    26   10   27 1
@<TRIPOS>SUBSTRUCTURE
     1 <0>         1 GROUP 0 A     ****
