@<TRIPOS>MOLECULE
AlkEthOH_r660
   25    25     1     0     0
SMALL
USER_CHARGES

@<TRIPOS>ATOM
      1 C1          1.1711    0.9241   -1.7931 CT        1 <0>        0.09769
      2 C2          1.1600    1.6292   -0.4494 CT        1 <0>        0.10418
      3 C3          0.9424   -1.1847   -0.5757 CT        1 <0>        0.10735
      4 C4         -0.4305   -0.8900    0.0603 CT        1 <0>        0.11953
      5 C5         -0.4251    0.4132    0.9146 CT        1 <0>        0.35523
      6 C6         -1.5356   -0.9123   -1.0042 CT        1 <0>       -0.11977
      7 C7         -1.7864    0.6766    1.5770 CT        1 <0>       -0.10903
      8 O1          1.2224   -0.4951   -1.7819 OS        1 <0>       -0.41947
      9 O2         -0.1385    1.5771    0.1337 OS        1 <0>       -0.45294
     10 O3         -0.7118   -1.9901    0.9449 OH        1 <0>       -0.58251
     11 O4          0.5321    0.2519    1.9739 OH        1 <0>       -0.60897
     12 H1          0.2924    1.2145   -2.3787 H1        1 <0>        0.05109
     13 H2          2.0490    1.2533   -2.3596 H1        1 <0>        0.05109
     14 H3          1.9306    1.2590    0.2337 H1        1 <0>        0.06640
     15 H4          1.3674    2.6912   -0.6198 H1        1 <0>        0.06640
     16 H5          1.7641   -1.0356    0.1349 H1        1 <0>        0.06406
     17 H6          0.9938   -2.2530   -0.8240 H1        1 <0>        0.06406
     18 H7         -2.4914   -0.7026   -0.5344 HC        1 <0>        0.05147
     19 H8         -1.5660   -1.8922   -1.4701 HC        1 <0>        0.05147
     20 H9         -1.3258   -0.1577   -1.7559 HC        1 <0>        0.05147
     21 H10        -1.7320    1.5915    2.1586 HC        1 <0>        0.05883
     22 H11        -2.0357   -0.1550    2.2286 HC        1 <0>        0.05883
     23 H12        -2.5463    0.7780    0.8084 HC        1 <0>        0.05883
     24 H13        -0.7212   -2.7780    0.3869 HO        1 <0>        0.40182
     25 H14         0.5078    1.0751    2.4798 HO        1 <0>        0.41289
@<TRIPOS>BOND
     1    1    2 1
     2    1    8 1
     3    2    9 1
     4    3    4 1
     5    3    8 1
     6    4    5 1
     7    4    6 1
     8    4   10 1
     9    5    7 1
    10    5    9 1
    11    5   11 1
    12    1   12 1
    13    1   13 1
    14    2   14 1
    15    2   15 1
    16    3   16 1
    17    3   17 1
    18    6   18 1
    19    6   19 1
    20    6   20 1
    21    7   21 1
    22    7   22 1
    23    7   23 1
    24   10   24 1
    25   11   25 1
@<TRIPOS>SUBSTRUCTURE
     1 <0>         1 GROUP 0 A     ****
