@<TRIPOS>MOLECULE
AlkEthOH_r249
   18    18     1     0     0
SMALL
USER_CHARGES

@<TRIPOS>ATOM
      1 C1         -0.4283   -0.1457    1.1167 CT        1 <0>       -0.09435
      2 C2          0.0849    1.5944   -0.3956 CT        1 <0>        0.09909
      3 C3          0.4576    1.0733    0.9776 CT        1 <0>        0.11461
      4 C4         -0.4607   -0.6786   -0.3142 CT        1 <0>        0.33851
      5 C5         -1.7538   -1.4097   -0.6386 CT        1 <0>       -0.11237
      6 O1         -0.3424    0.4645   -1.1762 OS        1 <0>       -0.45243
      7 O2          1.8283    0.6906    0.9737 OH        1 <0>       -0.57804
      8 O3          0.6143   -1.5887   -0.5434 OH        1 <0>       -0.60550
      9 H1         -0.0377   -0.8786    1.8296 HC        1 <0>        0.08070
     10 H2         -1.4279    0.1757    1.4325 HC        1 <0>        0.08070
     11 H3         -0.7650    2.2821   -0.3379 H1        1 <0>        0.05330
     12 H4          0.9117    2.0874   -0.9148 H1        1 <0>        0.05330
     13 H5          0.3124    1.8122    1.7683 H1        1 <0>        0.04603
     14 H6         -1.7313   -1.7711   -1.6671 HC        1 <0>        0.05240
     15 H7         -2.6037   -0.7370   -0.5195 HC        1 <0>        0.05240
     16 H8         -1.8806   -2.2606    0.0316 HC        1 <0>        0.05240
     17 H9          2.3452    1.5069    0.8828 HO        1 <0>        0.40128
     18 H10         0.5316   -1.8839   -1.4626 HO        1 <0>        0.41797
@<TRIPOS>BOND
     1    1    3 1
     2    1    4 1
     3    2    3 1
     4    2    6 1
     5    3    7 1
     6    4    5 1
     7    4    6 1
     8    4    8 1
     9    1    9 1
    10    1   10 1
    11    2   11 1
    12    2   12 1
    13    3   13 1
    14    5   14 1
    15    5   15 1
    16    5   16 1
    17    7   17 1
    18    8   18 1
@<TRIPOS>SUBSTRUCTURE
     1 <0>         1 GROUP 0 A     ****
