@<TRIPOS>MOLECULE
AlkEthOH_c455
   24    23     1     0     0
SMALL
USER_CHARGES

@<TRIPOS>ATOM
      1 C1         -0.9668    0.2884    0.1558 CT        1 <0>       -0.09024
      2 C2         -3.2082    0.9974   -0.6997 CT        1 <0>       -0.09024
      3 C3          2.3044    2.5399   -3.5153 CT        1 <0>       -0.13102
      4 C4         -1.1463    1.8619   -1.8466 CT        1 <0>       -0.07301
      5 C5          0.2859    1.6004   -2.3326 CT        1 <0>       -0.07122
      6 C6         -1.7650    0.6698   -1.0918 CT        1 <0>       -0.06772
      7 C7          0.8792    2.8153   -3.0543 CT        1 <0>        0.13915
      8 O1          0.0796    3.1202   -4.1935 OH        1 <0>       -0.60055
      9 H1         -0.9120    1.1231    0.8627 HC        1 <0>        0.03257
     10 H2          0.0541   -0.0107   -0.0999 HC        1 <0>        0.03257
     11 H3         -1.4317   -0.5596    0.6704 HC        1 <0>        0.03257
     12 H4         -3.2425    1.8605   -0.0262 HC        1 <0>        0.03257
     13 H5         -3.6722    0.1522   -0.1799 HC        1 <0>        0.03257
     14 H6         -3.8166    1.2301   -1.5805 HC        1 <0>        0.03257
     15 H7          2.3467    1.6735   -4.1823 HC        1 <0>        0.04209
     16 H8          2.7222    3.4075   -4.0380 HC        1 <0>        0.04209
     17 H9          2.9549    2.3477   -2.6552 HC        1 <0>        0.04209
     18 H10        -1.1537    2.7514   -1.2036 HC        1 <0>        0.04773
     19 H11        -1.7810    2.0946   -2.7109 HC        1 <0>        0.04773
     20 H12         0.2731    0.7398   -3.0131 HC        1 <0>        0.04737
     21 H13         0.9265    1.3443   -1.4818 HC        1 <0>        0.04737
     22 H14        -1.7887   -0.1978   -1.7632 HC        1 <0>        0.04583
     23 H15         0.8690    3.6865   -2.3893 H1        1 <0>        0.03005
     24 H16         0.4731    3.9051   -4.6056 HO        1 <0>        0.39708
@<TRIPOS>BOND
     1    1    6 1
     2    2    6 1
     3    3    7 1
     4    4    5 1
     5    4    6 1
     6    5    7 1
     7    7    8 1
     8    1    9 1
     9    1   10 1
    10    1   11 1
    11    2   12 1
    12    2   13 1
    13    2   14 1
    14    3   15 1
    15    3   16 1
    16    3   17 1
    17    4   18 1
    18    4   19 1
    19    5   20 1
    20    5   21 1
    21    6   22 1
    22    7   23 1
    23    8   24 1
@<TRIPOS>SUBSTRUCTURE
     1 <0>         1 GROUP 0 A     ****
