@<TRIPOS>MOLECULE
AlkEthOH_c1115
   23    22     1     0     0
SMALL
USER_CHARGES

@<TRIPOS>ATOM
      1 C1         -0.8768   -0.8700   -3.2407 CT        1 <0>       -0.09219
      2 C2          1.4002   -1.3101    2.4542 CT        1 <0>       -0.12401
      3 C3         -0.1326   -0.3882   -2.0052 CT        1 <0>       -0.07801
      4 C4         -0.9987    0.5475   -1.1606 CT        1 <0>       -0.11482
      5 C5          1.1781   -0.0055    1.7040 CT        1 <0>        0.33756
      6 C6         -0.2917    1.0050    0.1177 CT        1 <0>        0.33620
      7 O1          1.0785    1.0700    2.6317 OH        1 <0>       -0.61583
      8 O2         -1.1752    1.8980    0.7902 OH        1 <0>       -0.60294
      9 O3          0.0042   -0.1503    0.9033 OS        1 <0>       -0.48911
     10 H1         -1.2004   -0.0258   -3.8580 HC        1 <0>        0.03494
     11 H2         -0.2429   -1.5201   -3.8522 HC        1 <0>        0.03494
     12 H3         -1.7657   -1.4387   -2.9499 HC        1 <0>        0.03494
     13 H4          0.5538   -1.5303    3.1125 HC        1 <0>        0.05390
     14 H5          2.2944   -1.2471    3.0848 HC        1 <0>        0.05390
     15 H6          1.5455   -2.1428    1.7590 HC        1 <0>        0.05390
     16 H7          0.1747   -1.2580   -1.4138 HC        1 <0>        0.04175
     17 H8          0.7807    0.1321   -2.3165 HC        1 <0>        0.04175
     18 H9         -1.2884    1.4265   -1.7502 HC        1 <0>        0.05892
     19 H10        -1.9319    0.0334   -0.8952 HC        1 <0>        0.05892
     20 H11         2.0425    0.1821    1.0570 H2        1 <0>        0.06886
     21 H12         0.6277    1.5411   -0.1485 H2        1 <0>        0.08498
     22 H13         1.9076    1.1147    3.1367 HO        1 <0>        0.41543
     23 H14        -1.3438    2.6413    0.1867 HO        1 <0>        0.40602
@<TRIPOS>BOND
     1    1    3 1
     2    2    5 1
     3    3    4 1
     4    4    6 1
     5    5    7 1
     6    5    9 1
     7    6    8 1
     8    6    9 1
     9    1   10 1
    10    1   11 1
    11    1   12 1
    12    2   13 1
    13    2   14 1
    14    2   15 1
    15    3   16 1
    16    3   17 1
    17    4   18 1
    18    4   19 1
    19    5   20 1
    20    6   21 1
    21    7   22 1
    22    8   23 1
@<TRIPOS>SUBSTRUCTURE
     1 <0>         1 GROUP 0 A     ****
