@<TRIPOS>MOLECULE
AlkEthOH_r735
   12    12     1     0     0
SMALL
USER_CHARGES

@<TRIPOS>ATOM
      1 C1         -1.4172   -0.7696   -0.1904 CT        1 <0>        0.33422
      2 C2          0.3324    0.2208    0.0436 CT        1 <0>        0.52397
      3 C3          0.2261    1.7275    0.0291 CT        1 <0>       -0.11978
      4 O1         -0.6203   -0.3782    0.9310 OS        1 <0>       -0.46584
      5 O2         -0.3526   -0.3798   -1.0623 OS        1 <0>       -0.46584
      6 O3          1.6892   -0.2107    0.2258 OH        1 <0>       -0.57646
      7 H1         -1.6198   -1.8414   -0.2168 H2        1 <0>        0.06885
      8 H2         -2.3212   -0.1688   -0.3123 H2        1 <0>        0.06885
      9 H3          0.9630    2.1598   -0.6551 HC        1 <0>        0.06773
     10 H4          0.4045    2.1365    1.0286 HC        1 <0>        0.06773
     11 H5         -0.7706    2.0408   -0.2972 HC        1 <0>        0.06773
     12 H6          2.1863    0.1526   -0.5197 HO        1 <0>        0.42884
@<TRIPOS>BOND
     1    1    4 1
     2    1    5 1
     3    2    3 1
     4    2    4 1
     5    2    5 1
     6    2    6 1
     7    1    7 1
     8    1    8 1
     9    3    9 1
    10    3   10 1
    11    3   11 1
    12    6   12 1
@<TRIPOS>SUBSTRUCTURE
     1 <0>         1 GROUP 0 A     ****
