@<TRIPOS>MOLECULE
AlkEthOH_c959
   22    21     1     0     0
SMALL
USER_CHARGES

@<TRIPOS>ATOM
      1 C1          2.3392    0.3643   -0.3662 CT        1 <0>       -0.08926
      2 C2         -0.6870   -3.4567   -0.0734 CT        1 <0>       -0.09732
      3 C3         -1.5106    0.8961   -0.2128 CT        1 <0>       -0.14115
      4 C4          0.9554    0.9538   -0.6268 CT        1 <0>       -0.09778
      5 C5         -0.8073   -2.0717    0.5259 CT        1 <0>        0.14166
      6 C6         -0.1759    0.2209    0.1232 CT        1 <0>        0.35183
      7 O1          0.0921    0.3494    1.5208 OH        1 <0>       -0.62562
      8 O2         -0.1451   -1.1428   -0.3195 OS        1 <0>       -0.42485
      9 H1          2.3555   -0.6920   -0.6538 HC        1 <0>        0.04148
     10 H2          3.1088    0.8812   -0.9475 HC        1 <0>        0.04148
     11 H3          2.6063    0.4262    0.6933 HC        1 <0>        0.04148
     12 H4         -1.1494   -3.4949   -1.0637 HC        1 <0>        0.04257
     13 H5          0.3646   -3.7486   -0.1628 HC        1 <0>        0.04257
     14 H6         -1.1697   -4.1991    0.5707 HC        1 <0>        0.04257
     15 H7         -2.3453    0.4066    0.3001 HC        1 <0>        0.04864
     16 H8         -1.5184    1.9404    0.1184 HC        1 <0>        0.04864
     17 H9         -1.7160    0.8574   -1.2876 HC        1 <0>        0.04864
     18 H10         0.9775    2.0091   -0.3277 HC        1 <0>        0.04893
     19 H11         0.7693    0.9154   -1.7073 HC        1 <0>        0.04893
     20 H12        -0.3430   -2.0404    1.5160 H1        1 <0>        0.03695
     21 H13        -1.8585   -1.7814    0.6136 H1        1 <0>        0.03695
     22 H14         0.1363    1.2957    1.7378 HO        1 <0>        0.41266
@<TRIPOS>BOND
     1    1    4 1
     2    2    5 1
     3    3    6 1
     4    4    6 1
     5    5    8 1
     6    6    7 1
     7    6    8 1
     8    1    9 1
     9    1   10 1
    10    1   11 1
    11    2   12 1
    12    2   13 1
    13    2   14 1
    14    3   15 1
    15    3   16 1
    16    3   17 1
    17    4   18 1
    18    4   19 1
    19    5   20 1
    20    5   21 1
    21    7   22 1
@<TRIPOS>SUBSTRUCTURE
     1 <0>         1 GROUP 0 A     ****
