@<TRIPOS>MOLECULE
AlkEthOH_r242
   26    26     1     0     0
SMALL
USER_CHARGES

@<TRIPOS>ATOM
      1 C1         -1.6605    0.9952   -0.2679 CT        1 <0>       -0.14616
      2 C2         -0.3224   -1.1743   -0.2751 CT        1 <0>       -0.10043
      3 C3         -0.7120    2.0768    0.2371 CT        1 <0>        0.13605
      4 C4          0.7442    0.5206    1.3267 CT        1 <0>        0.13561
      5 C5         -1.0031   -0.0887   -1.1209 CT        1 <0>        0.14772
      6 C6          0.9511   -0.7667    0.5031 CT        1 <0>       -0.07237
      7 C7          2.1235   -0.5845   -0.4823 CT        1 <0>       -0.08601
      8 C8          1.3099   -1.9119    1.4716 CT        1 <0>       -0.08601
      9 O1          0.6200    1.6522    0.4752 OS        1 <0>       -0.41633
     10 O2         -2.0507   -0.7185   -1.8674 OH        1 <0>       -0.60033
     11 H1         -2.1574    0.5228    0.5901 HC        1 <0>        0.05068
     12 H2         -2.4759    1.4785   -0.8219 HC        1 <0>        0.05068
     13 H3         -1.0674   -1.5728    0.4289 HC        1 <0>        0.04543
     14 H4         -0.0854   -2.0283   -0.9258 HC        1 <0>        0.04543
     15 H5         -0.6503    2.8714   -0.5149 H1        1 <0>        0.04658
     16 H6         -1.1122    2.5402    1.1464 H1        1 <0>        0.04658
     17 H7         -0.1063    0.4384    2.0152 H1        1 <0>        0.04566
     18 H8          1.6307    0.7001    1.9469 H1        1 <0>        0.04566
     19 H9         -0.3142    0.3530   -1.8478 H1        1 <0>        0.08914
     20 H10         3.0104   -0.2993    0.0715 HC        1 <0>        0.03808
     21 H11         1.8693    0.1910   -1.1954 HC        1 <0>        0.03808
     22 H12         2.2982   -1.5197   -1.0015 HC        1 <0>        0.03808
     23 H13         2.2015   -1.6414    2.0252 HC        1 <0>        0.03808
     24 H14         1.4911   -2.8151    0.9005 HC        1 <0>        0.03808
     25 H15         0.4845   -2.0685    2.1563 HC        1 <0>        0.03808
     26 H16        -2.6632   -1.0859   -1.2143 HO        1 <0>        0.39394
@<TRIPOS>BOND
     1    1    3 1
     2    1    5 1
     3    2    5 1
     4    2    6 1
     5    3    9 1
     6    4    6 1
     7    4    9 1
     8    5   10 1
     9    6    7 1
    10    6    8 1
    11    1   11 1
    12    1   12 1
    13    2   13 1
    14    2   14 1
    15    3   15 1
    16    3   16 1
    17    4   17 1
    18    4   18 1
    19    5   19 1
    20    7   20 1
    21    7   21 1
    22    7   22 1
    23    8   23 1
    24    8   24 1
    25    8   25 1
    26   10   26 1
@<TRIPOS>SUBSTRUCTURE
     1 <0>         1 GROUP 0 A     ****
