@<TRIPOS>MOLECULE
AlkEthOH_c638
   29    28     1     0     0
SMALL
USER_CHARGES

@<TRIPOS>ATOM
      1 C1          1.6057    0.3918    2.9988 CT        1 <0>       -0.13212
      2 C2         -1.8409   -2.0536   -1.1970 CT        1 <0>       -0.13212
      3 C3          1.0397    1.5677   -1.2495 CT        1 <0>       -0.12746
      4 C4          0.3102    0.2898    0.8369 CT        1 <0>       -0.08575
      5 C5         -1.1960    0.4379   -1.2260 CT        1 <0>       -0.08575
      6 C6          1.6760    0.5720    1.4862 CT        1 <0>        0.14537
      7 C7         -2.1837   -0.6408   -0.7497 CT        1 <0>        0.14537
      8 C8          0.2628    0.3578   -0.7094 CT        1 <0>        0.16602
      9 O1          2.6534   -0.3232    0.9676 OH        1 <0>       -0.59642
     10 O2         -3.4720   -0.3325   -1.2913 OH        1 <0>       -0.59642
     11 O3          0.8828   -0.8134   -1.2427 OH        1 <0>       -0.58149
     12 H1          1.2852   -0.6232    3.2585 HC        1 <0>        0.04565
     13 H2          0.9140    1.1073    3.4533 HC        1 <0>        0.04565
     14 H3          2.5951    0.5326    3.4474 HC        1 <0>        0.04565
     15 H4         -1.7320   -2.1049   -2.2858 HC        1 <0>        0.04565
     16 H5         -0.9219   -2.4183   -0.7312 HC        1 <0>        0.04565
     17 H6         -2.6490   -2.7443   -0.9310 HC        1 <0>        0.04565
     18 H7          0.9957    1.6002   -2.3447 HC        1 <0>        0.04539
     19 H8          2.1040    1.5066   -0.9991 HC        1 <0>        0.04539
     20 H9          0.6371    2.5096   -0.8631 HC        1 <0>        0.04539
     21 H10        -0.4265    0.9908    1.2500 HC        1 <0>        0.05735
     22 H11         0.0139   -0.7219    1.1429 HC        1 <0>        0.05735
     23 H12        -1.1914    0.4231   -2.3254 HC        1 <0>        0.05735
     24 H13        -1.6149    1.4169   -0.9537 HC        1 <0>        0.05735
     25 H14         1.9987    1.5951    1.2683 H1        1 <0>        0.02821
     26 H15        -2.2864   -0.6189    0.3402 H1        1 <0>        0.02821
     27 H16         3.4957   -0.0901    1.3892 HO        1 <0>        0.39501
     28 H17        -4.0826   -0.9896   -0.9273 HO        1 <0>        0.39501
     29 H18         0.8189   -0.7412   -2.2067 HO        1 <0>        0.39486
@<TRIPOS>BOND
     1    1    6 1
     2    2    7 1
     3    3    8 1
     4    4    6 1
     5    4    8 1
     6    5    7 1
     7    5    8 1
     8    6    9 1
     9    7   10 1
    10    8   11 1
    11    1   12 1
    12    1   13 1
    13    1   14 1
    14    2   15 1
    15    2   16 1
    16    2   17 1
    17    3   18 1
    18    3   19 1
    19    3   20 1
    20    4   21 1
    21    4   22 1
    22    5   23 1
    23    5   24 1
    24    6   25 1
    25    7   26 1
    26    9   27 1
    27   10   28 1
    28   11   29 1
@<TRIPOS>SUBSTRUCTURE
     1 <0>         1 GROUP 0 A     ****
