@<TRIPOS>MOLECULE
AlkEthOH_r831
   24    24     1     0     0
SMALL
USER_CHARGES

@<TRIPOS>ATOM
      1 C1          0.4158    1.0665    0.7626 CT        1 <0>       -0.13184
      2 C2         -0.7849   -0.6296   -2.0168 CT        1 <0>        0.10516
      3 C3         -1.7114   -0.1835   -0.8920 CT        1 <0>        0.10119
      4 C4          1.3343   -0.6745   -0.9146 CT        1 <0>        0.12994
      5 C5          1.6393    0.2981    0.2313 CT        1 <0>       -0.07632
      6 C6         -0.7541    0.2206    1.2852 CT        1 <0>        0.33841
      7 C7          2.3856   -0.4262    1.3523 CT        1 <0>       -0.09584
      8 O1          0.5160   -0.0527   -1.9040 OS        1 <0>       -0.41951
      9 O2         -1.2664   -0.7251    0.3486 OS        1 <0>       -0.41281
     10 O3         -1.7744    1.1064    1.7474 OH        1 <0>       -0.62492
     11 H1          0.7386    1.7409    1.5680 HC        1 <0>        0.05714
     12 H2          0.0600    1.7438   -0.0241 HC        1 <0>        0.05714
     13 H3         -0.7042   -1.7220   -2.0628 H1        1 <0>        0.05404
     14 H4         -1.1999   -0.2901   -2.9715 H1        1 <0>        0.05404
     15 H5         -1.8024    0.9072   -0.8587 H1        1 <0>        0.06062
     16 H6         -2.7112   -0.5901   -1.0770 H1        1 <0>        0.06062
     17 H7          2.2754   -0.9472   -1.4068 H1        1 <0>        0.04963
     18 H8          0.9010   -1.6127   -0.5476 H1        1 <0>        0.04963
     19 H9          2.3173    1.0643   -0.1700 HC        1 <0>        0.05602
     20 H10        -0.4113   -0.3508    2.1545 H2        1 <0>        0.06726
     21 H11         1.7478   -1.1972    1.7799 HC        1 <0>        0.03705
     22 H12         2.6591    0.2841    2.1300 HC        1 <0>        0.03705
     23 H13         3.2876   -0.8873    0.9549 HC        1 <0>        0.03705
     24 H14        -1.3761    1.6376    2.4531 HO        1 <0>        0.40925
@<TRIPOS>BOND
     1    1    5 1
     2    1    6 1
     3    2    3 1
     4    2    8 1
     5    3    9 1
     6    4    5 1
     7    4    8 1
     8    5    7 1
     9    6    9 1
    10    6   10 1
    11    1   11 1
    12    1   12 1
    13    2   13 1
    14    2   14 1
    15    3   15 1
    16    3   16 1
    17    4   17 1
    18    4   18 1
    19    5   19 1
    20    6   20 1
    21    7   21 1
    22    7   22 1
    23    7   23 1
    24   10   24 1
@<TRIPOS>SUBSTRUCTURE
     1 <0>         1 GROUP 0 A     ****
