@<TRIPOS>MOLECULE
AlkEthOH_r514
   23    23     1     0     0
SMALL
USER_CHARGES

@<TRIPOS>ATOM
      1 C1          0.0628   -1.4467   -0.6471 CT        1 <0>       -0.10693
      2 C2          0.3674    0.5094    0.8961 CT        1 <0>       -0.13557
      3 C3         -0.1267   -0.4337   -1.7717 CT        1 <0>        0.13152
      4 C4          0.1546    1.4165   -0.3170 CT        1 <0>        0.33518
      5 C5         -0.3096   -0.8669    0.7338 CT        1 <0>       -0.04806
      6 C6          0.1876   -1.8159    1.8386 CT        1 <0>       -0.08938
      7 C7         -1.8387   -0.7367    0.8714 CT        1 <0>       -0.08938
      8 O1          0.6022    0.7620   -1.5029 OS        1 <0>       -0.39549
      9 O2          0.9004    2.6120   -0.1012 OH        1 <0>       -0.57840
     10 H1         -0.5146   -2.3540   -0.8601 HC        1 <0>        0.05409
     11 H2          1.1219   -1.7373   -0.6320 HC        1 <0>        0.05409
     12 H3          1.4491    0.3638    1.0279 HC        1 <0>        0.05802
     13 H4          0.0235    1.0149    1.8075 HC        1 <0>        0.05802
     14 H5          0.2567   -0.8503   -2.7088 H1        1 <0>        0.04927
     15 H6         -1.1829   -0.1924   -1.9339 H1        1 <0>        0.04927
     16 H7         -0.8996    1.6966   -0.4229 H2        1 <0>        0.02775
     17 H8         -0.0758   -1.4055    2.8077 HC        1 <0>        0.03672
     18 H9          1.2652   -1.9168    1.7648 HC        1 <0>        0.03672
     19 H10        -0.2802   -2.7867    1.7131 HC        1 <0>        0.03672
     20 H11        -2.0745   -0.3282    1.8477 HC        1 <0>        0.03672
     21 H12        -2.2900   -1.7168    0.7648 HC        1 <0>        0.03672
     22 H13        -2.2103   -0.0750    0.0969 HC        1 <0>        0.03672
     23 H14         0.5524    3.0116    0.7109 HO        1 <0>        0.40568
@<TRIPOS>BOND
     1    1    3 1
     2    1    5 1
     3    2    4 1
     4    2    5 1
     5    3    8 1
     6    4    8 1
     7    4    9 1
     8    5    6 1
     9    5    7 1
    10    1   10 1
    11    1   11 1
    12    2   12 1
    13    2   13 1
    14    3   14 1
    15    3   15 1
    16    4   16 1
    17    6   17 1
    18    6   18 1
    19    6   19 1
    20    7   20 1
    21    7   21 1
    22    7   22 1
    23    9   23 1
@<TRIPOS>SUBSTRUCTURE
     1 <0>         1 GROUP 0 A     ****
