@<TRIPOS>MOLECULE
AlkEthOH_c62
   22    21     1     0     0
SMALL
USER_CHARGES

@<TRIPOS>ATOM
      1 C1         -0.1590    2.1112   -0.1202 CT        1 <0>       -0.12679
      2 C2         -0.9017   -0.4595    1.4330 CT        1 <0>       -0.08673
      3 C3          1.0183   -1.6056    0.3269 CT        1 <0>       -0.08673
      4 C4         -0.9271   -0.8027   -1.0476 CT        1 <0>        0.13224
      5 C5          0.7331    0.8754   -0.0268 CT        1 <0>        0.14725
      6 C6         -0.0251   -0.4752    0.1645 CT        1 <0>       -0.04087
      7 O1         -0.1707   -0.8355   -2.2508 OH        1 <0>       -0.60247
      8 O2          1.6416    1.0718    1.0604 OH        1 <0>       -0.60563
      9 H1         -0.7819    2.1934    0.7780 HC        1 <0>        0.04130
     10 H2         -0.8526    2.0435   -0.9640 HC        1 <0>        0.04130
     11 H3          0.4217    3.0328   -0.2080 HC        1 <0>        0.04130
     12 H4         -1.6675    0.3222    1.3859 HC        1 <0>        0.04169
     13 H5         -1.4080   -1.4183    1.5849 HC        1 <0>        0.04169
     14 H6         -0.2949   -0.2696    2.3261 HC        1 <0>        0.04169
     15 H7          1.6768   -1.6702   -0.5465 HC        1 <0>        0.04169
     16 H8          1.6498   -1.4476    1.2081 HC        1 <0>        0.04169
     17 H9          0.5297   -2.5793    0.4469 HC        1 <0>        0.04169
     18 H10        -1.4038   -1.7818   -0.9215 H1        1 <0>        0.02354
     19 H11        -1.7246   -0.0613   -1.1630 H1        1 <0>        0.02354
     20 H12         1.3424    0.8209   -0.9374 H1        1 <0>        0.05161
     21 H13        -0.7923   -1.0447   -2.9665 HO        1 <0>        0.39948
     22 H14         2.1508    1.8675    0.8477 HO        1 <0>        0.39752
@<TRIPOS>BOND
     1    1    5 1
     2    2    6 1
     3    3    6 1
     4    4    6 1
     5    4    7 1
     6    5    6 1
     7    5    8 1
     8    1    9 1
     9    1   10 1
    10    1   11 1
    11    2   12 1
    12    2   13 1
    13    2   14 1
    14    3   15 1
    15    3   16 1
    16    3   17 1
    17    4   18 1
    18    4   19 1
    19    5   20 1
    20    7   21 1
    21    8   22 1
@<TRIPOS>SUBSTRUCTURE
     1 <0>         1 GROUP 0 A     ****
