@<TRIPOS>MOLECULE
AlkEthOH_r932
   24    24     1     0     0
SMALL
USER_CHARGES

@<TRIPOS>ATOM
      1 C1         -0.6064    1.7364    0.8839 CT        1 <0>       -0.05814
      2 C2         -0.8343    0.4081    1.6131 CT        1 <0>       -0.10902
      3 C3         -0.0782    1.6770   -0.5559 CT        1 <0>       -0.10557
      4 C4         -1.6951   -0.6189    0.8745 CT        1 <0>        0.14775
      5 C5          1.1384    0.7697   -0.8113 CT        1 <0>        0.16900
      6 C6         -0.0554   -1.3295   -0.7507 CT        1 <0>        0.52721
      7 C7          2.4072    1.3825   -0.2233 CT        1 <0>       -0.09501
      8 O1         -1.3642   -0.8131   -0.4956 OS        1 <0>       -0.44648
      9 O2          1.0206   -0.5370   -0.2477 OS        1 <0>       -0.49065
     10 O3          0.0674   -2.6752   -0.2870 OH        1 <0>       -0.61973
     11 H1         -1.5524    2.2927    0.8718 HC        1 <0>        0.03504
     12 H2          0.0850    2.3382    1.4869 HC        1 <0>        0.03504
     13 H3          0.1347   -0.0342    1.8686 HC        1 <0>        0.05150
     14 H4         -1.3075    0.6191    2.5808 HC        1 <0>        0.05150
     15 H5         -0.8988    1.3725   -1.2157 HC        1 <0>        0.05296
     16 H6          0.1637    2.6987   -0.8774 HC        1 <0>        0.05296
     17 H7         -1.6710   -1.5813    1.3983 H1        1 <0>        0.05360
     18 H8         -2.7364   -0.2785    0.8937 H1        1 <0>        0.05360
     19 H9          1.2856    0.6694   -1.8939 H1        1 <0>        0.03076
     20 H10         0.0470   -1.3671   -1.8417 H3        1 <0>        0.09087
     21 H11         2.2973    1.4974    0.8540 HC        1 <0>        0.04623
     22 H12         2.5867    2.3596   -0.6692 HC        1 <0>        0.04623
     23 H13         3.2591    0.7355   -0.4276 HC        1 <0>        0.04623
     24 H14         0.9723   -2.9532   -0.4931 HO        1 <0>        0.43412
@<TRIPOS>BOND
     1    1    2 1
     2    1    3 1
     3    2    4 1
     4    3    5 1
     5    4    8 1
     6    5    7 1
     7    5    9 1
     8    6    8 1
     9    6    9 1
    10    6   10 1
    11    1   11 1
    12    1   12 1
    13    2   13 1
    14    2   14 1
    15    3   15 1
    16    3   16 1
    17    4   17 1
    18    4   18 1
    19    5   19 1
    20    6   20 1
    21    7   21 1
    22    7   22 1
    23    7   23 1
    24   10   24 1
@<TRIPOS>SUBSTRUCTURE
     1 <0>         1 GROUP 0 A     ****
