@<TRIPOS>MOLECULE
AlkEthOH_r980
   26    26     1     0     0
SMALL
USER_CHARGES

@<TRIPOS>ATOM
      1 C1         -1.0442    1.9428    0.0393 CT        1 <0>       -0.11271
      2 C2          0.1073    1.4592   -0.8403 CT        1 <0>       -0.06925
      3 C3         -2.2138    0.9713    0.1529 CT        1 <0>        0.12987
      4 C4         -0.8310   -0.7836    1.0079 CT        1 <0>        0.10457
      5 C5          1.0855    0.5285   -0.0944 CT        1 <0>       -0.05092
      6 C6          0.5165   -0.8725    0.2710 CT        1 <0>        0.13256
      7 C7          2.3994    0.4369   -0.8894 CT        1 <0>       -0.09017
      8 C8          0.3971   -1.8052   -0.9452 CT        1 <0>       -0.11673
      9 O1         -1.8680   -0.4036    0.1165 OS        1 <0>       -0.41327
     10 O2          1.4511   -1.4739    1.1817 OH        1 <0>       -0.60450
     11 H1         -0.6636    2.1730    1.0423 HC        1 <0>        0.04578
     12 H2         -1.4301    2.8926   -0.3517 HC        1 <0>        0.04578
     13 H3         -0.2717    0.9890   -1.7548 HC        1 <0>        0.04870
     14 H4          0.6599    2.3521   -1.1616 HC        1 <0>        0.04870
     15 H5         -2.7859    1.1731    1.0659 H1        1 <0>        0.04395
     16 H6         -2.8988    1.1382   -0.6860 H1        1 <0>        0.04395
     17 H7         -1.0931   -1.7747    1.3993 H1        1 <0>        0.04986
     18 H8         -0.7790   -0.1300    1.8883 H1        1 <0>        0.04986
     19 H9          1.3582    1.0178    0.8529 HC        1 <0>        0.05873
     20 H10         2.2063   -0.0395   -1.8446 HC        1 <0>        0.03862
     21 H11         3.1172   -0.1498   -0.3263 HC        1 <0>        0.03862
     22 H12         2.7895    1.4362   -1.0508 HC        1 <0>        0.03862
     23 H13         1.3548   -1.8569   -1.4532 HC        1 <0>        0.04700
     24 H14        -0.3550   -1.4155   -1.6238 HC        1 <0>        0.04700
     25 H15         0.1079   -2.7963   -0.6104 HC        1 <0>        0.04700
     26 H16         1.0899   -2.3447    1.3946 HO        1 <0>        0.39838
@<TRIPOS>BOND
     1    1    2 1
     2    1    3 1
     3    2    5 1
     4    3    9 1
     5    4    6 1
     6    4    9 1
     7    5    6 1
     8    5    7 1
     9    6    8 1
    10    6   10 1
    11    1   11 1
    12    1   12 1
    13    2   13 1
    14    2   14 1
    15    3   15 1
    16    3   16 1
    17    4   17 1
    18    4   18 1
    19    5   19 1
    20    7   20 1
    21    7   21 1
    22    7   22 1
    23    8   23 1
    24    8   24 1
    25    8   25 1
    26   10   26 1
@<TRIPOS>SUBSTRUCTURE
     1 <0>         1 GROUP 0 A     ****
