@<TRIPOS>MOLECULE
AlkEthOH_r515
   21    21     1     0     0
SMALL
USER_CHARGES

@<TRIPOS>ATOM
      1 C1         -0.6900    1.4176    0.2165 CT        1 <0>       -0.10127
      2 C2          0.4745   -0.7658    0.6433 CT        1 <0>       -0.17038
      3 C3         -0.1300    1.3520   -1.2019 CT        1 <0>        0.13171
      4 C4          0.9645   -0.7119   -0.8056 CT        1 <0>        0.33787
      5 C5         -0.8336    0.0154    0.8224 CT        1 <0>        0.15236
      6 C6         -1.2327    0.0959    2.2953 CT        1 <0>       -0.12359
      7 O1          1.1092    0.6455   -1.2228 OS        1 <0>       -0.39829
      8 O2          2.2179   -1.3860   -0.8680 OH        1 <0>       -0.57661
      9 O3         -1.8799   -0.6626    0.1208 OH        1 <0>       -0.59964
     10 H1         -0.0049    2.0097    0.8363 HC        1 <0>        0.06311
     11 H2         -1.6577    1.9322    0.1939 HC        1 <0>        0.06311
     12 H3          0.3514   -1.8147    0.9409 HC        1 <0>        0.06045
     13 H4          1.2490   -0.3417    1.2965 HC        1 <0>        0.06045
     14 H5         -0.8350    0.8763   -1.8937 H1        1 <0>        0.05838
     15 H6          0.0585    2.3650   -1.5716 H1        1 <0>        0.05838
     16 H7          0.2681   -1.2331   -1.4733 H2        1 <0>        0.04112
     17 H8         -1.3293   -0.9075    2.7060 HC        1 <0>        0.04591
     18 H9         -2.1849    0.6143    2.3909 HC        1 <0>        0.04591
     19 H10        -0.4723    0.6390    2.8536 HC        1 <0>        0.04591
     20 H11         2.0567   -2.2976   -0.5787 HO        1 <0>        0.40504
     21 H12        -1.9494   -1.5413    0.5214 HO        1 <0>        0.40007
@<TRIPOS>BOND
     1    1    3 1
     2    1    5 1
     3    2    4 1
     4    2    5 1
     5    3    7 1
     6    4    7 1
     7    4    8 1
     8    5    6 1
     9    5    9 1
    10    1   10 1
    11    1   11 1
    12    2   12 1
    13    2   13 1
    14    3   14 1
    15    3   15 1
    16    4   16 1
    17    6   17 1
    18    6   18 1
    19    6   19 1
    20    8   20 1
    21    9   21 1
@<TRIPOS>SUBSTRUCTURE
     1 <0>         1 GROUP 0 A     ****
