@<TRIPOS>MOLECULE
AlkEthOH_r354
   33    33     1     0     0
SMALL
USER_CHARGES

@<TRIPOS>ATOM
      1 C1         -1.9407   -1.4388    0.4962 CT        1 <0>       -0.07202
      2 C2         -0.9999   -1.8475   -0.6250 CT        1 <0>       -0.06913
      3 C3         -1.2788   -0.8774    1.7457 CT        1 <0>       -0.06913
      4 C4         -0.5336   -0.6596   -1.4652 CT        1 <0>       -0.06731
      5 C5          0.1162   -0.2674    1.6205 CT        1 <0>       -0.06731
      6 C6          0.6460    0.1952   -0.9169 CT        1 <0>       -0.02896
      7 C7          0.3728    0.8173    0.5296 CT        1 <0>       -0.02896
      8 C8          1.9304   -0.6770   -0.9491 CT        1 <0>       -0.09022
      9 C9          0.8742    1.3108   -1.9785 CT        1 <0>       -0.09022
     10 C10        -0.8003    1.8268    0.5165 CT        1 <0>       -0.09022
     11 C11         1.6138    1.6175    1.0261 CT        1 <0>       -0.09022
     12 H1         -2.6776   -0.7202    0.1172 HC        1 <0>        0.03407
     13 H2         -2.5295   -2.3160    0.7955 HC        1 <0>        0.03407
     14 H3         -0.1644   -2.4458   -0.2494 HC        1 <0>        0.03656
     15 H4         -1.5652   -2.5106   -1.2935 HC        1 <0>        0.03656
     16 H5         -1.9596   -0.1473    2.2016 HC        1 <0>        0.03656
     17 H6         -1.2067   -1.6891    2.4827 HC        1 <0>        0.03656
     18 H7         -0.2339   -1.0640   -2.4430 HC        1 <0>        0.03602
     19 H8         -1.3936   -0.0136   -1.6840 HC        1 <0>        0.03602
     20 H9          0.3266    0.1734    2.6062 HC        1 <0>        0.03602
     21 H10         0.8481   -1.0768    1.5325 HC        1 <0>        0.03602
     22 H11         2.7539   -0.0897   -0.5696 HC        1 <0>        0.03377
     23 H12         2.1188   -0.9732   -1.9708 HC        1 <0>        0.03377
     24 H13         1.7706   -1.5466   -0.3283 HC        1 <0>        0.03377
     25 H14         1.6877    1.9361   -1.6443 HC        1 <0>        0.03377
     26 H15        -0.0345    1.8860   -2.0672 HC        1 <0>        0.03377
     27 H16         1.1187    0.8403   -2.9183 HC        1 <0>        0.03377
     28 H17        -0.6098    2.5728   -0.2437 HC        1 <0>        0.03377
     29 H18        -0.8679    2.2954    1.4894 HC        1 <0>        0.03377
     30 H19        -1.7159    1.2944    0.2949 HC        1 <0>        0.03377
     31 H20         1.8337    2.3854    0.3010 HC        1 <0>        0.03377
     32 H21         2.4429    0.9335    1.1184 HC        1 <0>        0.03377
     33 H22         1.3739    2.0553    1.9825 HC        1 <0>        0.03377
@<TRIPOS>BOND
     1    1    2 1
     2    1    3 1
     3    2    4 1
     4    3    5 1
     5    4    6 1
     6    5    7 1
     7    6    7 1
     8    6    8 1
     9    6    9 1
    10    7   10 1
    11    7   11 1
    12    1   12 1
    13    1   13 1
    14    2   14 1
    15    2   15 1
    16    3   16 1
    17    3   17 1
    18    4   18 1
    19    4   19 1
    20    5   20 1
    21    5   21 1
    22    8   22 1
    23    8   23 1
    24    8   24 1
    25    9   25 1
    26    9   26 1
    27    9   27 1
    28   10   28 1
    29   10   29 1
    30   10   30 1
    31   11   31 1
    32   11   32 1
    33   11   33 1
@<TRIPOS>SUBSTRUCTURE
     1 <0>         1 GROUP 0 A     ****
