@<TRIPOS>MOLECULE
AlkEthOH_r468
   25    25     1     0     0
SMALL
USER_CHARGES

@<TRIPOS>ATOM
      1 C1         -1.1393    1.8117   -0.5082 CT        1 <0>       -0.11160
      2 C2         -1.2063    0.5819   -1.4157 CT        1 <0>       -0.13057
      3 C3         -1.0394    1.4712    0.9713 CT        1 <0>        0.14740
      4 C4         -0.0557   -0.4207   -1.2383 CT        1 <0>        0.36663
      5 C5          0.4896   -0.3949    1.1393 CT        1 <0>        0.55114
      6 C6         -0.2119   -1.5425   -2.2702 CT        1 <0>       -0.09495
      7 C7         -0.0277   -1.0814    2.4112 CT        1 <0>       -0.08182
      8 O1          0.2713    1.0124    1.2736 OS        1 <0>       -0.48438
      9 O2         -0.1697   -1.0433    0.0458 OS        1 <0>       -0.48711
     10 O3          1.1857    0.2400   -1.4754 OH        1 <0>       -0.61130
     11 O4          1.9034   -0.6344    1.0666 OH        1 <0>       -0.59654
     12 H1         -0.2799    2.4266   -0.8026 HC        1 <0>        0.05225
     13 H2         -2.0408    2.4122   -0.6779 HC        1 <0>        0.05225
     14 H3         -2.1625    0.0752   -1.2306 HC        1 <0>        0.06148
     15 H4         -1.2216    0.9431   -2.4518 HC        1 <0>        0.06148
     16 H5         -1.1895    2.3891    1.5496 H1        1 <0>        0.05554
     17 H6         -1.8119    0.7613    1.2847 H1        1 <0>        0.05554
     18 H7          0.5975   -2.2587   -2.1541 HC        1 <0>        0.05412
     19 H8         -0.1808   -1.1221   -3.2720 HC        1 <0>        0.05412
     20 H9         -1.1635   -2.0457   -2.1191 HC        1 <0>        0.05412
     21 H10         0.1264   -2.1554    2.3356 HC        1 <0>        0.06048
     22 H11        -1.0895   -0.8783    2.5304 HC        1 <0>        0.06048
     23 H12         0.5104   -0.7012    3.2766 HC        1 <0>        0.06048
     24 H13         1.1514    0.5724   -2.3855 HO        1 <0>        0.41264
     25 H14         2.2837   -0.2475    1.8681 HO        1 <0>        0.43812
@<TRIPOS>BOND
     1    1    2 1
     2    1    3 1
     3    2    4 1
     4    3    8 1
     5    4    6 1
     6    4    9 1
     7    4   10 1
     8    5    7 1
     9    5    8 1
    10    5    9 1
    11    5   11 1
    12    1   12 1
    13    1   13 1
    14    2   14 1
    15    2   15 1
    16    3   16 1
    17    3   17 1
    18    6   18 1
    19    6   19 1
    20    6   20 1
    21    7   21 1
    22    7   22 1
    23    7   23 1
    24   10   24 1
    25   11   25 1
@<TRIPOS>SUBSTRUCTURE
     1 <0>         1 GROUP 0 A     ****
