@<TRIPOS>MOLECULE
AlkEthOH_r377
   29    29     1     0     0
SMALL
USER_CHARGES

@<TRIPOS>ATOM
      1 C1         -1.3003   -2.0847    0.4835 CT        1 <0>       -0.07366
      2 C2         -0.1267   -1.8166    1.4265 CT        1 <0>       -0.07564
      3 C3         -0.9775   -1.9271   -1.0048 CT        1 <0>       -0.07627
      4 C4         -0.1326   -0.4500    2.1128 CT        1 <0>       -0.06845
      5 C5         -0.7106   -0.5067   -1.5126 CT        1 <0>       -0.10582
      6 C6         -0.5241    0.7663    1.2776 CT        1 <0>       -0.10309
      7 C7          0.5923    0.1122   -0.9831 CT        1 <0>        0.15994
      8 C8          0.3984    1.1812    0.1169 CT        1 <0>        0.16201
      9 C9          1.7571    1.6634    0.6471 CT        1 <0>       -0.12291
     10 O1          1.2684    0.7380   -2.0853 OH        1 <0>       -0.59048
     11 O2         -0.2444    2.3240   -0.4787 OH        1 <0>       -0.58530
     12 H1         -1.5975   -3.1328    0.6255 HC        1 <0>        0.04080
     13 H2         -2.1808   -1.4927    0.7549 HC        1 <0>        0.04080
     14 H3         -0.1609   -2.5674    2.2280 HC        1 <0>        0.03698
     15 H4          0.8303   -1.9939    0.9266 HC        1 <0>        0.03698
     16 H5         -0.1285   -2.5721   -1.2648 HC        1 <0>        0.03676
     17 H6         -1.8341   -2.3200   -1.5683 HC        1 <0>        0.03676
     18 H7         -0.8470   -0.5066    2.9458 HC        1 <0>        0.03828
     19 H8          0.8449   -0.2849    2.5809 HC        1 <0>        0.03828
     20 H9         -0.6611   -0.5662   -2.6084 HC        1 <0>        0.05605
     21 H10        -1.5752    0.1316   -1.2993 HC        1 <0>        0.05605
     22 H11        -1.5523    0.6526    0.9136 HC        1 <0>        0.04672
     23 H12        -0.6018    1.6214    1.9659 HC        1 <0>        0.04672
     24 H13         1.2743   -0.6717   -0.6371 H1        1 <0>        0.03629
     25 H14         2.3883    1.9496   -0.1885 HC        1 <0>        0.04715
     26 H15         2.2315    0.8608    1.2033 HC        1 <0>        0.04715
     27 H16         1.6060    2.5184    1.2988 HC        1 <0>        0.04715
     28 H17         1.4385    0.0342   -2.7255 HO        1 <0>        0.39631
     29 H18        -0.2992    2.9875    0.2209 HO        1 <0>        0.39444
@<TRIPOS>BOND
     1    1    2 1
     2    1    3 1
     3    2    4 1
     4    3    5 1
     5    4    6 1
     6    5    7 1
     7    6    8 1
     8    7    8 1
     9    7   10 1
    10    8    9 1
    11    8   11 1
    12    1   12 1
    13    1   13 1
    14    2   14 1
    15    2   15 1
    16    3   16 1
    17    3   17 1
    18    4   18 1
    19    4   19 1
    20    5   20 1
    21    5   21 1
    22    6   22 1
    23    6   23 1
    24    7   24 1
    25    9   25 1
    26    9   26 1
    27    9   27 1
    28   10   28 1
    29   11   29 1
@<TRIPOS>SUBSTRUCTURE
     1 <0>         1 GROUP 0 A     ****
