@<TRIPOS>MOLECULE
AlkEthOH_r512
   26    26     1     0     0
SMALL
USER_CHARGES

@<TRIPOS>ATOM
      1 C1          0.9095    0.6824    1.3332 CT        1 <0>       -0.10416
      2 C2         -0.5157   -0.9618    0.0749 CT        1 <0>       -0.11763
      3 C3          0.3846    1.7512    0.3836 CT        1 <0>        0.13503
      4 C4          0.8793   -0.7236    0.7026 CT        1 <0>       -0.04440
      5 C5         -1.0299    0.2107   -0.7814 CT        1 <0>        0.34393
      6 C6          1.1218   -1.7776    1.8011 CT        1 <0>       -0.09151
      7 C7          2.0042   -0.8756   -0.3390 CT        1 <0>       -0.09151
      8 C8         -2.5104   -0.0027   -1.1078 CT        1 <0>       -0.11540
      9 O1         -0.9349    1.4408   -0.0553 OS        1 <0>       -0.40371
     10 O2         -0.3085    0.2561   -2.0119 OH        1 <0>       -0.61792
     11 H1          1.9223    0.9412    1.6644 HC        1 <0>        0.04969
     12 H2          0.2706    0.6827    2.2266 HC        1 <0>        0.04969
     13 H3         -0.5014   -1.8849   -0.5187 HC        1 <0>        0.05229
     14 H4         -1.2277   -1.1186    0.8974 HC        1 <0>        0.05229
     15 H5          0.3369    2.7114    0.9078 H1        1 <0>        0.05668
     16 H6          1.0411    1.8939   -0.4811 H1        1 <0>        0.05668
     17 H7          1.1002   -2.7657    1.3558 HC        1 <0>        0.03773
     18 H8          0.3427   -1.6949    2.5503 HC        1 <0>        0.03773
     19 H9          2.0898   -1.6001    2.2557 HC        1 <0>        0.03773
     20 H10         1.9611   -1.8711   -0.7668 HC        1 <0>        0.03773
     21 H11         2.9619   -0.7263    0.1471 HC        1 <0>        0.03773
     22 H12         1.8692   -0.1347   -1.1193 HC        1 <0>        0.03773
     23 H13        -2.8742    0.8248   -1.7125 HC        1 <0>        0.05200
     24 H14        -3.0843   -0.0534   -0.1855 HC        1 <0>        0.05200
     25 H15        -2.6327   -0.9320   -1.6593 HC        1 <0>        0.05200
     26 H16        -0.4673   -0.5914   -2.4546 HO        1 <0>        0.40758
@<TRIPOS>BOND
     1    1    3 1
     2    1    4 1
     3    2    4 1
     4    2    5 1
     5    3    9 1
     6    4    6 1
     7    4    7 1
     8    5    8 1
     9    5    9 1
    10    5   10 1
    11    1   11 1
    12    1   12 1
    13    2   13 1
    14    2   14 1
    15    3   15 1
    16    3   16 1
    17    6   17 1
    18    6   18 1
    19    6   19 1
    20    7   20 1
    21    7   21 1
    22    7   22 1
    23    8   23 1
    24    8   24 1
    25    8   25 1
    26   10   26 1
@<TRIPOS>SUBSTRUCTURE
     1 <0>         1 GROUP 0 A     ****
