@<TRIPOS>MOLECULE
AlkEthOH_r213
   26    26     1     0     0
SMALL
USER_CHARGES

@<TRIPOS>ATOM
      1 C1          1.2523    1.4554    0.7798 CT        1 <0>        0.09474
      2 C2          1.8693    0.0762    0.8914 CT        1 <0>        0.09480
      3 C3         -0.6950    0.5256   -0.2780 CT        1 <0>        0.13128
      4 C4         -0.0722   -0.9021   -0.1328 CT        1 <0>        0.13128
      5 C5         -0.4071    1.1744   -1.6480 CT        1 <0>       -0.10104
      6 C6         -2.2197    0.5333   -0.0752 CT        1 <0>       -0.10104
      7 C7         -0.5268   -1.6325    1.1481 CT        1 <0>       -0.10104
      8 C8         -0.3969   -1.8172   -1.3257 CT        1 <0>       -0.10104
      9 O1         -0.1709    1.3713    0.7685 OS        1 <0>       -0.41535
     10 O2          1.3670   -0.7845   -0.1282 OS        1 <0>       -0.41535
     11 H1          1.5477    2.0685    1.6371 H1        1 <0>        0.05442
     12 H2          1.5962    1.9748   -0.1200 H1        1 <0>        0.05442
     13 H3          2.9558    0.1398    0.7751 H1        1 <0>        0.05442
     14 H4          1.6771   -0.3667    1.8737 H1        1 <0>        0.05442
     15 H5         -0.8657    2.1557   -1.6777 HC        1 <0>        0.04709
     16 H6         -0.8226    0.5493   -2.4293 HC        1 <0>        0.04709
     17 H7          0.6649    1.2642   -1.7782 HC        1 <0>        0.04709
     18 H8         -2.5910    1.5467   -0.1877 HC        1 <0>        0.04709
     19 H9         -2.4505    0.1685    0.9204 HC        1 <0>        0.04709
     20 H10        -2.6829   -0.1098   -0.8164 HC        1 <0>        0.04709
     21 H11        -0.0592   -2.6093    1.1827 HC        1 <0>        0.04709
     22 H12        -1.6048   -1.7401    1.1298 HC        1 <0>        0.04709
     23 H13        -0.2287   -1.0500    2.0118 HC        1 <0>        0.04709
     24 H14         0.0604   -2.7884   -1.1670 HC        1 <0>        0.04709
     25 H15        -0.0049   -1.3732   -2.2349 HC        1 <0>        0.04709
     26 H16        -1.4731   -1.9294   -1.4086 HC        1 <0>        0.04709
@<TRIPOS>BOND
     1    1    2 1
     2    1    9 1
     3    2   10 1
     4    3    4 1
     5    3    5 1
     6    3    6 1
     7    3    9 1
     8    4    7 1
     9    4    8 1
    10    4   10 1
    11    1   11 1
    12    1   12 1
    13    2   13 1
    14    2   14 1
    15    5   15 1
    16    5   16 1
    17    5   17 1
    18    6   18 1
    19    6   19 1
    20    6   20 1
    21    7   21 1
    22    7   22 1
    23    7   23 1
    24    8   24 1
    25    8   25 1
    26    8   26 1
@<TRIPOS>SUBSTRUCTURE
     1 <0>         1 GROUP 0 A     ****
