@<TRIPOS>MOLECULE
AlkEthOH_c1045
   28    27     1     0     0
SMALL
USER_CHARGES

@<TRIPOS>ATOM
      1 C1          1.4477   -1.9155    1.0786 CT        1 <0>       -0.09322
      2 C2         -0.6227   -2.1245   -5.2209 CT        1 <0>       -0.13943
      3 C3         -0.2913   -4.8812   -1.5864 CT        1 <0>       -0.10320
      4 C4          1.3843   -3.8070   -3.1121 CT        1 <0>       -0.10320
      5 C5          1.1662   -3.0326    0.0842 CT        1 <0>       -0.07507
      6 C6          0.4071   -2.5093   -1.1412 CT        1 <0>       -0.10343
      7 C7         -0.5926   -1.8787   -3.7200 CT        1 <0>        0.33173
      8 C8          0.1536   -3.5662   -2.2352 CT        1 <0>        0.15703
      9 O1         -1.4994   -0.8325   -3.3854 OH        1 <0>       -0.60458
     10 O2         -0.9126   -3.1052   -3.0679 OS        1 <0>       -0.40819
     11 H1          0.5183   -1.4394    1.4075 HC        1 <0>        0.03369
     12 H2          2.0900   -1.1481    0.6352 HC        1 <0>        0.03369
     13 H3          1.9562   -2.3142    1.9620 HC        1 <0>        0.03369
     14 H4         -1.6182   -2.4453   -5.5438 HC        1 <0>        0.05003
     15 H5         -0.3835   -1.2062   -5.7690 HC        1 <0>        0.05003
     16 H6          0.1136   -2.8812   -5.5090 HC        1 <0>        0.05003
     17 H7         -1.1729   -4.7282   -0.9535 HC        1 <0>        0.04433
     18 H8          0.4928   -5.2770   -0.9306 HC        1 <0>        0.04433
     19 H9         -0.5326   -5.6399   -2.3379 HC        1 <0>        0.04433
     20 H10         1.7236   -2.8815   -3.5887 HC        1 <0>        0.04433
     21 H11         1.1480   -4.4953   -3.9323 HC        1 <0>        0.04433
     22 H12         2.2119   -4.2324   -2.5357 HC        1 <0>        0.04433
     23 H13         2.1167   -3.4837   -0.2211 HC        1 <0>        0.03986
     24 H14         0.5820   -3.8086    0.5900 HC        1 <0>        0.03986
     25 H15        -0.5483   -2.0783   -0.8159 HC        1 <0>        0.05483
     26 H16         0.9966   -1.6902   -1.5747 HC        1 <0>        0.05483
     27 H17         0.4156   -1.5599   -3.4315 H2        1 <0>        0.03244
     28 H18        -1.2253   -0.0290   -3.8584 HO        1 <0>        0.40260
@<TRIPOS>BOND
     1    1    5 1
     2    2    7 1
     3    3    8 1
     4    4    8 1
     5    5    6 1
     6    6    8 1
     7    7    9 1
     8    7   10 1
     9    8   10 1
    10    1   11 1
    11    1   12 1
    12    1   13 1
    13    2   14 1
    14    2   15 1
    15    2   16 1
    16    3   17 1
    17    3   18 1
    18    3   19 1
    19    4   20 1
    20    4   21 1
    21    4   22 1
    22    5   23 1
    23    5   24 1
    24    6   25 1
    25    6   26 1
    26    7   27 1
    27    9   28 1
@<TRIPOS>SUBSTRUCTURE
     1 <0>         1 GROUP 0 A     ****
