@<TRIPOS>MOLECULE
AlkEthOH_c895
   17    16     1     0     0
SMALL
USER_CHARGES

@<TRIPOS>ATOM
      1 C1          1.6009   -0.3333    1.0852 CT        1 <0>       -0.11876
      2 C2          0.3353    1.4757   -1.8142 CT        1 <0>        0.12040
      3 C3         -1.4098   -0.8629    1.1248 CT        1 <0>        0.33329
      4 C4          0.5254    0.0700    0.0846 CT        1 <0>        0.33174
      5 O1         -1.8705   -1.5692   -0.0186 OH        1 <0>       -0.63620
      6 O2          0.9959    1.2523   -0.5753 OS        1 <0>       -0.40855
      7 O3         -0.6935    0.3204    0.7877 OS        1 <0>       -0.43509
      8 H1          1.7361    0.4503    1.8396 HC        1 <0>        0.05157
      9 H2          2.5645   -0.4757    0.5856 HC        1 <0>        0.05157
     10 H3          1.3343   -1.2527    1.6145 HC        1 <0>        0.05157
     11 H4          0.7264    2.3846   -2.2778 H1        1 <0>        0.03763
     12 H5         -0.7394    1.5749   -1.6423 H1        1 <0>        0.03763
     13 H6          0.5197    0.6245   -2.4739 H1        1 <0>        0.03763
     14 H7         -0.8211   -1.5272    1.7666 H2        1 <0>        0.03726
     15 H8         -2.2938   -0.5538    1.6898 H2        1 <0>        0.03726
     16 H9          0.4036   -0.7248   -0.6620 H2        1 <0>        0.05795
     17 H10        -2.3447   -2.3562    0.2987 HO        1 <0>        0.41310
@<TRIPOS>BOND
     1    1    4 1
     2    2    6 1
     3    3    5 1
     4    3    7 1
     5    4    6 1
     6    4    7 1
     7    1    8 1
     8    1    9 1
     9    1   10 1
    10    2   11 1
    11    2   12 1
    12    2   13 1
    13    3   14 1
    14    3   15 1
    15    4   16 1
    16    5   17 1
@<TRIPOS>SUBSTRUCTURE
     1 <0>         1 GROUP 0 A     ****
