@<TRIPOS>MOLECULE
AlkEthOH_r42
   19    19     1     0     0
SMALL
USER_CHARGES

@<TRIPOS>ATOM
      1 C1          0.8595   -0.5761   -0.3646 CT        1 <0>       -0.07807
      2 C2          1.9981   -0.4824    0.6484 CT        1 <0>       -0.07484
      3 C3          1.2772   -0.0492   -1.7356 CT        1 <0>       -0.07484
      4 C4          2.5549    0.9347    0.7374 CT        1 <0>       -0.09264
      5 C5          1.8340    1.3679   -1.6464 CT        1 <0>       -0.09264
      6 C6          2.9750    1.4610   -0.6344 CT        1 <0>        0.14238
      7 O1          3.4005    2.8144   -0.5171 OH        1 <0>       -0.60083
      8 H1          0.5301   -1.6173   -0.4541 HC        1 <0>        0.04149
      9 H2          0.0000   -0.0000    0.0001 HC        1 <0>        0.04149
     10 H3          1.6426   -0.8026    1.6343 HC        1 <0>        0.04034
     11 H4          2.8009   -1.1715    0.3584 HC        1 <0>        0.04034
     12 H5          2.0377   -0.7130   -2.1648 HC        1 <0>        0.04034
     13 H6          0.4174   -0.0658   -2.4146 HC        1 <0>        0.04034
     14 H7          1.8026    1.6035    1.1761 HC        1 <0>        0.05008
     15 H8          3.4104    0.9619    1.4230 HC        1 <0>        0.05008
     16 H9          2.1833    1.6969   -2.6326 HC        1 <0>        0.05008
     17 H10         1.0345    2.0666   -1.3668 HC        1 <0>        0.05008
     18 H11         3.8350    0.8745   -0.9984 H1        1 <0>        0.02980
     19 H12         4.1510    2.8174    0.0978 HO        1 <0>        0.39702
@<TRIPOS>BOND
     1    1    2 1
     2    1    3 1
     3    2    4 1
     4    3    5 1
     5    4    6 1
     6    5    6 1
     7    6    7 1
     8    1    8 1
     9    1    9 1
    10    2   10 1
    11    2   11 1
    12    3   12 1
    13    3   13 1
    14    4   14 1
    15    4   15 1
    16    5   16 1
    17    5   17 1
    18    6   18 1
    19    7   19 1
@<TRIPOS>SUBSTRUCTURE
     1 <0>         1 GROUP 0 A     ****
