@<TRIPOS>MOLECULE
AlkEthOH_r1018
   29    29     1     0     0
SMALL
USER_CHARGES

@<TRIPOS>ATOM
      1 C1          1.3088   -1.3487   -0.4481 CT        1 <0>       -0.10832
      2 C2         -0.3228    1.3013    1.3929 CT        1 <0>       -0.12443
      3 C3         -0.8931    0.0722   -0.8253 CT        1 <0>       -0.07186
      4 C4          0.9084   -1.9055    0.9153 CT        1 <0>        0.13472
      5 C5          0.5995    0.2272    1.9501 CT        1 <0>        0.13593
      6 C6          0.1680   -0.9059   -1.3803 CT        1 <0>       -0.04718
      7 C7         -0.4585    1.3927   -0.1456 CT        1 <0>        0.16435
      8 C8         -0.5492   -2.1409   -1.9488 CT        1 <0>       -0.09398
      9 C9          0.7538    2.0584   -0.8002 CT        1 <0>       -0.11868
     10 O1          0.0509   -1.0512    1.6552 OS        1 <0>       -0.41786
     11 O2         -1.5656    2.3004   -0.3652 OH        1 <0>       -0.60926
     12 H1          1.9961   -0.5116   -0.3080 HC        1 <0>        0.04252
     13 H2          1.9114   -2.1112   -0.9597 HC        1 <0>        0.04252
     14 H3         -1.3268    1.1369    1.8105 HC        1 <0>        0.05456
     15 H4         -0.0075    2.2784    1.7825 HC        1 <0>        0.05456
     16 H5         -1.5339    0.3370   -1.6806 HC        1 <0>        0.06410
     17 H6         -1.5819   -0.4614   -0.1561 HC        1 <0>        0.06410
     18 H7          0.3830   -2.8574    0.7864 H1        1 <0>        0.04481
     19 H8          1.8027   -2.1181    1.5130 H1        1 <0>        0.04481
     20 H9          1.6307    0.3530    1.6066 H1        1 <0>        0.03932
     21 H10         0.6218    0.3161    3.0420 H1        1 <0>        0.03932
     22 H11         0.6459   -0.4101   -2.2369 HC        1 <0>        0.04163
     23 H12        -1.0426   -2.6730   -1.1416 HC        1 <0>        0.03551
     24 H13         0.1783   -2.7918   -2.4233 HC        1 <0>        0.03551
     25 H14        -1.2860   -1.8234   -2.6800 HC        1 <0>        0.03551
     26 H15         0.6116    2.0992   -1.8779 HC        1 <0>        0.04138
     27 H16         1.6509    1.4848   -0.5780 HC        1 <0>        0.04138
     28 H17         0.8690    3.0691   -0.4147 HC        1 <0>        0.04138
     29 H18        -1.2994    3.1294    0.0477 HO        1 <0>        0.39365
@<TRIPOS>BOND
     1    1    4 1
     2    1    6 1
     3    2    5 1
     4    2    7 1
     5    3    6 1
     6    3    7 1
     7    4   10 1
     8    5   10 1
     9    6    8 1
    10    7    9 1
    11    7   11 1
    12    1   12 1
    13    1   13 1
    14    2   14 1
    15    2   15 1
    16    3   16 1
    17    3   17 1
    18    4   18 1
    19    4   19 1
    20    5   20 1
    21    5   21 1
    22    6   22 1
    23    8   23 1
    24    8   24 1
    25    8   25 1
    26    9   26 1
    27    9   27 1
    28    9   28 1
    29   11   29 1
@<TRIPOS>SUBSTRUCTURE
     1 <0>         1 GROUP 0 A     ****
