@<TRIPOS>MOLECULE
AlkEthOH_r852
   24    24     1     0     0
SMALL
USER_CHARGES

@<TRIPOS>ATOM
      1 C1          1.0682    0.1707   -0.1820 CT        1 <0>       -0.07549
      2 C2          1.4607   -0.4466   -1.5215 CT        1 <0>       -0.07300
      3 C3          1.3572    1.6688   -0.1458 CT        1 <0>       -0.07300
      4 C4          1.0819    1.7803   -2.6558 CT        1 <0>       -0.06941
      5 C5          0.7859    0.2742   -2.6954 CT        1 <0>       -0.06533
      6 C6          0.6810    2.4028   -1.3107 CT        1 <0>       -0.06533
      7 C7          1.2330   -0.3285   -4.0262 CT        1 <0>       -0.08979
      8 C8          1.0242    3.8911   -1.2816 CT        1 <0>       -0.08979
      9 H1          0.0002   -0.0003    0.0006 HC        1 <0>        0.03865
     10 H2          1.6133   -0.3287    0.6270 HC        1 <0>        0.03865
     11 H3          2.5517   -0.4021   -1.6329 HC        1 <0>        0.03868
     12 H4          1.1843   -1.5077   -1.5247 HC        1 <0>        0.03868
     13 H5          1.0090    2.0806    0.8090 HC        1 <0>        0.03868
     14 H6          2.4426    1.8276   -0.1836 HC        1 <0>        0.03868
     15 H7          2.1514    1.9514   -2.8377 HC        1 <0>        0.03989
     16 H8          0.5400    2.2816   -3.4676 HC        1 <0>        0.03989
     17 H9         -0.2999    0.1335   -2.6099 HC        1 <0>        0.04561
     18 H10        -0.4069    2.3058   -1.1961 HC        1 <0>        0.04561
     19 H11         2.3083   -0.2059   -4.1437 HC        1 <0>        0.03302
     20 H12         0.7246    0.1736   -4.8475 HC        1 <0>        0.03302
     21 H13         0.9897   -1.3893   -4.0507 HC        1 <0>        0.03302
     22 H14         2.0990    4.0240   -1.3932 HC        1 <0>        0.03302
     23 H15         0.7075    4.3241   -0.3344 HC        1 <0>        0.03302
     24 H16         0.5148    4.4030   -2.0963 HC        1 <0>        0.03302
@<TRIPOS>BOND
     1    1    2 1
     2    1    3 1
     3    2    5 1
     4    3    6 1
     5    4    5 1
     6    4    6 1
     7    5    7 1
     8    6    8 1
     9    1    9 1
    10    1   10 1
    11    2   11 1
    12    2   12 1
    13    3   13 1
    14    3   14 1
    15    4   15 1
    16    4   16 1
    17    5   17 1
    18    6   18 1
    19    7   19 1
    20    7   20 1
    21    7   21 1
    22    8   22 1
    23    8   23 1
    24    8   24 1
@<TRIPOS>SUBSTRUCTURE
     1 <0>         1 GROUP 0 A     ****
