@<TRIPOS>MOLECULE
AlkEthOH_c88
   24    23     1     0     0
SMALL
USER_CHARGES

@<TRIPOS>ATOM
      1 C1         -0.4336    2.4810    0.5891 CT        1 <0>       -0.13073
      2 C2          2.3840   -1.5772    1.1704 CT        1 <0>       -0.12946
      3 C3         -0.5386   -0.5967   -1.8175 CT        1 <0>       -0.10688
      4 C4         -0.4883    1.6711   -0.7055 CT        1 <0>        0.12747
      5 C5          1.0234   -1.5114    0.4950 CT        1 <0>        0.34471
      6 C6         -0.4714    0.1408   -0.4732 CT        1 <0>        0.36240
      7 O1         -1.6604    2.0593   -1.4199 OH        1 <0>       -0.59406
      8 O2          0.0713   -2.0406    1.4118 OH        1 <0>       -0.62229
      9 O3         -1.6188   -0.1861    0.3132 OH        1 <0>       -0.59656
     10 O4          0.7704   -0.1418    0.1908 OS        1 <0>       -0.45906
     11 H1         -1.2724    2.2447    1.2501 HC        1 <0>        0.04956
     12 H2         -0.4367    3.5575    0.3872 HC        1 <0>        0.04956
     13 H3          0.4980    2.2703    1.1257 HC        1 <0>        0.04956
     14 H4          2.3957   -0.9619    2.0775 HC        1 <0>        0.05324
     15 H5          2.6255   -2.6026    1.4675 HC        1 <0>        0.05324
     16 H6          3.1685   -1.1986    0.5076 HC        1 <0>        0.05324
     17 H7         -0.5280   -1.6827   -1.6799 HC        1 <0>        0.05799
     18 H8         -1.4643   -0.3690   -2.3565 HC        1 <0>        0.05799
     19 H9          0.3191   -0.3432   -2.4495 HC        1 <0>        0.05799
     20 H10         0.3762    1.9562   -1.3170 H1        1 <0>        0.04439
     21 H11         1.0456   -2.1345   -0.4043 H2        1 <0>        0.03963
     22 H12        -1.5730    3.0086   -1.5962 HO        1 <0>        0.40311
     23 H13         0.3333   -2.9572    1.6012 HO        1 <0>        0.40930
     24 H14        -1.5562    0.2903    1.1579 HO        1 <0>        0.42566
@<TRIPOS>BOND
     1    1    4 1
     2    2    5 1
     3    3    6 1
     4    4    6 1
     5    4    7 1
     6    5    8 1
     7    5   10 1
     8    6    9 1
     9    6   10 1
    10    1   11 1
    11    1   12 1
    12    1   13 1
    13    2   14 1
    14    2   15 1
    15    2   16 1
    16    3   17 1
    17    3   18 1
    18    3   19 1
    19    4   20 1
    20    5   21 1
    21    7   22 1
    22    8   23 1
    23    9   24 1
@<TRIPOS>SUBSTRUCTURE
     1 <0>         1 GROUP 0 A     ****
