@<TRIPOS>MOLECULE
AlkEthOH_c661
   25    24     1     0     0
SMALL
USER_CHARGES

@<TRIPOS>ATOM
      1 C1         -0.4628    1.3748    1.6903 CT        1 <0>       -0.08873
      2 C2          1.9834   -0.5691   -1.6488 CT        1 <0>       -0.13116
      3 C3         -2.5110    0.8994   -0.5551 CT        1 <0>       -0.13208
      4 C4          0.9907   -0.4009    0.7040 CT        1 <0>       -0.07417
      5 C5         -0.1457    0.6027    0.4002 CT        1 <0>       -0.05065
      6 C6          1.4114   -1.3174   -0.4525 CT        1 <0>        0.14140
      7 C7         -1.3975   -0.0799   -0.1971 CT        1 <0>        0.14074
      8 O1          2.4068   -2.2225    0.0308 OH        1 <0>       -0.60292
      9 O2         -1.9086   -1.0425    0.7217 OH        1 <0>       -0.59593
     10 H1         -0.8401    0.6974    2.4643 HC        1 <0>        0.03959
     11 H2         -1.2207    2.1469    1.5218 HC        1 <0>        0.03959
     12 H3          0.4320    1.8556    2.0969 HC        1 <0>        0.03959
     13 H4          2.8313    0.0610   -1.3667 HC        1 <0>        0.04077
     14 H5          1.2165    0.0703   -2.0996 HC        1 <0>        0.04077
     15 H6          2.3083   -1.2665   -2.4287 HC        1 <0>        0.04077
     16 H7         -2.8212    1.4566    0.3361 HC        1 <0>        0.04318
     17 H8         -2.1737    1.6493   -1.2776 HC        1 <0>        0.04318
     18 H9         -3.3860    0.3797   -0.9563 HC        1 <0>        0.04318
     19 H10         1.8756    0.1555    1.0440 HC        1 <0>        0.06220
     20 H11         0.7128   -1.0303    1.5606 HC        1 <0>        0.06220
     21 H12         0.2249    1.3351   -0.3280 HC        1 <0>        0.04489
     22 H13         0.5678   -1.9341   -0.7765 H1        1 <0>        0.03400
     23 H14        -1.1177   -0.6141   -1.1112 H1        1 <0>        0.02577
     24 H15         2.6064   -2.8236   -0.7020 HO        1 <0>        0.39604
     25 H16        -2.6400   -1.4926    0.2714 HO        1 <0>        0.39778
@<TRIPOS>BOND
     1    1    5 1
     2    2    6 1
     3    3    7 1
     4    4    5 1
     5    4    6 1
     6    5    7 1
     7    6    8 1
     8    7    9 1
     9    1   10 1
    10    1   11 1
    11    1   12 1
    12    2   13 1
    13    2   14 1
    14    2   15 1
    15    3   16 1
    16    3   17 1
    17    3   18 1
    18    4   19 1
    19    4   20 1
    20    5   21 1
    21    6   22 1
    22    7   23 1
    23    8   24 1
    24    9   25 1
@<TRIPOS>SUBSTRUCTURE
     1 <0>         1 GROUP 0 A     ****
