@<TRIPOS>MOLECULE
AlkEthOH_c631
   29    28     1     0     0
SMALL
USER_CHARGES

@<TRIPOS>ATOM
      1 C1          1.8449    1.3095   -0.6476 CT        1 <0>       -0.13317
      2 C2          0.0010   -4.2955   -2.0225 CT        1 <0>       -0.12888
      3 C3          3.3099   -1.4008   -3.7175 CT        1 <0>       -0.09763
      4 C4          3.9924   -2.7060   -1.6948 CT        1 <0>       -0.09763
      5 C5          2.0673   -1.0299   -1.5592 CT        1 <0>       -0.10219
      6 C6          2.6796    0.3802   -1.5208 CT        1 <0>        0.14508
      7 C7          1.3997   -3.8109   -1.6719 CT        1 <0>        0.33298
      8 C8          2.8129   -2.0681   -2.4299 CT        1 <0>        0.16897
      9 O1          3.9933    0.3480   -0.9741 OH        1 <0>       -0.60039
     10 O2          2.2103   -4.9176   -1.2884 OH        1 <0>       -0.61614
     11 O3          1.9228   -3.1204   -2.8044 OS        1 <0>       -0.41485
     12 H1          1.7551    0.9241    0.3725 HC        1 <0>        0.04291
     13 H2          2.2848    2.3122   -0.6079 HC        1 <0>        0.04291
     14 H3          0.8391    1.4247   -1.0662 HC        1 <0>        0.04291
     15 H4          0.0285   -4.9847   -2.8725 HC        1 <0>        0.05093
     16 H5         -0.4446   -4.8362   -1.1800 HC        1 <0>        0.05093
     17 H6         -0.6575   -3.4539   -2.2590 HC        1 <0>        0.05093
     18 H7          2.4899   -0.9323   -4.2714 HC        1 <0>        0.04850
     19 H8          3.7980   -2.1310   -4.3732 HC        1 <0>        0.04850
     20 H9          4.0623   -0.6352   -3.4959 HC        1 <0>        0.04850
     21 H10         3.6568   -3.1892   -0.7696 HC        1 <0>        0.04850
     22 H11         4.4933   -3.4580   -2.3127 HC        1 <0>        0.04850
     23 H12         4.7275   -1.9547   -1.3873 HC        1 <0>        0.04850
     24 H13         2.0438   -1.4103   -0.5285 HC        1 <0>        0.05390
     25 H14         1.0276   -0.9555   -1.9033 HC        1 <0>        0.05390
     26 H15         2.7375    0.8105   -2.5256 H1        1 <0>        0.03627
     27 H16         1.3357   -3.1249   -0.8195 H2        1 <0>        0.02764
     28 H17         4.3263    1.2590   -0.9967 HO        1 <0>        0.39843
     29 H18         1.8022   -5.3402   -0.5142 HO        1 <0>        0.40119
@<TRIPOS>BOND
     1    1    6 1
     2    2    7 1
     3    3    8 1
     4    4    8 1
     5    5    6 1
     6    5    8 1
     7    6    9 1
     8    7   10 1
     9    7   11 1
    10    8   11 1
    11    1   12 1
    12    1   13 1
    13    1   14 1
    14    2   15 1
    15    2   16 1
    16    2   17 1
    17    3   18 1
    18    3   19 1
    19    3   20 1
    20    4   21 1
    21    4   22 1
    22    4   23 1
    23    5   24 1
    24    5   25 1
    25    6   26 1
    26    7   27 1
    27    9   28 1
    28   10   29 1
@<TRIPOS>SUBSTRUCTURE
     1 <0>         1 GROUP 0 A     ****
