@<TRIPOS>MOLECULE
AlkEthOH_r303
   24    24     1     0     0
SMALL
USER_CHARGES

@<TRIPOS>ATOM
      1 C1         -1.4407    0.4881    0.5405 CT        1 <0>       -0.08908
      2 C2         -1.1790   -1.0255    0.4055 CT        1 <0>       -0.08900
      3 C3          0.0799    0.7389    0.3110 CT        1 <0>       -0.06310
      4 C4          0.1232   -0.6972   -0.3844 CT        1 <0>       -0.06310
      5 C5          0.8414    0.8853    1.6367 CT        1 <0>       -0.07744
      6 C6          0.3752    1.9420   -0.5860 CT        1 <0>       -0.07744
      7 C7         -0.1047   -0.7340   -1.9027 CT        1 <0>       -0.07744
      8 C8          1.3047   -1.5977   -0.0206 CT        1 <0>       -0.07744
      9 H1         -2.0925    0.8845   -0.2473 HC        1 <0>        0.04863
     10 H2         -1.8474    0.8058    1.5055 HC        1 <0>        0.04863
     11 H3         -1.0150   -1.5221    1.3696 HC        1 <0>        0.04863
     12 H4         -1.9493   -1.5845   -0.1344 HC        1 <0>        0.04863
     13 H5          1.8935    1.0582    1.4310 HC        1 <0>        0.03496
     14 H6          0.7298   -0.0244    2.2190 HC        1 <0>        0.03496
     15 H7          0.4372    1.7253    2.1938 HC        1 <0>        0.03496
     16 H8          1.4508    2.0575   -0.7026 HC        1 <0>        0.03496
     17 H9         -0.0354    2.8440   -0.1369 HC        1 <0>        0.03496
     18 H10        -0.0772    1.7904   -1.5639 HC        1 <0>        0.03496
     19 H11         0.8250   -0.5002   -2.4127 HC        1 <0>        0.03496
     20 H12        -0.8605   -0.0021   -2.1716 HC        1 <0>        0.03496
     21 H13        -0.4392   -1.7255   -2.1931 HC        1 <0>        0.03496
     22 H14         2.1763   -1.3141   -0.6069 HC        1 <0>        0.03496
     23 H15         1.0536   -2.6352   -0.2309 HC        1 <0>        0.03496
     24 H16         1.5346   -1.4917    1.0376 HC        1 <0>        0.03496
@<TRIPOS>BOND
     1    1    2 1
     2    1    3 1
     3    2    4 1
     4    3    4 1
     5    3    5 1
     6    3    6 1
     7    4    7 1
     8    4    8 1
     9    1    9 1
    10    1   10 1
    11    2   11 1
    12    2   12 1
    13    5   13 1
    14    5   14 1
    15    5   15 1
    16    6   16 1
    17    6   17 1
    18    6   18 1
    19    7   19 1
    20    7   20 1
    21    7   21 1
    22    8   22 1
    23    8   23 1
    24    8   24 1
@<TRIPOS>SUBSTRUCTURE
     1 <0>         1 GROUP 0 A     ****
