@<TRIPOS>MOLECULE
AlkEthOH_r820
   32    32     1     0     0
SMALL
USER_CHARGES

@<TRIPOS>ATOM
      1 C1          1.9144   -1.5529   -0.8405 CT        1 <0>       -0.12390
      2 C2         -0.6836    1.2254    0.4736 CT        1 <0>       -0.09219
      3 C3          1.8942   -1.7770    0.6799 CT        1 <0>        0.13480
      4 C4          1.4794   -0.1542   -1.2798 CT        1 <0>        0.14041
      5 C5         -0.3694   -1.2329    1.2361 CT        1 <0>        0.12819
      6 C6         -1.1943    0.0588    1.3631 CT        1 <0>       -0.05806
      7 C7         -0.6741    0.9985   -1.0613 CT        1 <0>        0.15885
      8 C8         -1.2008    0.5260    2.8264 CT        1 <0>       -0.09187
      9 C9         -2.1051    0.7454   -1.5635 CT        1 <0>       -0.10362
     10 C10        -0.1330    2.2452   -1.7812 CT        1 <0>       -0.10362
     11 O1          1.0099   -0.9138    1.3804 OS        1 <0>       -0.42386
     12 O2          0.0624   -0.1685   -1.4332 OS        1 <0>       -0.43218
     13 H1          2.9299   -1.7591   -1.1987 HC        1 <0>        0.05423
     14 H2          1.2619   -2.3005   -1.3090 HC        1 <0>        0.05423
     15 H3         -1.3033    2.1089    0.6828 HC        1 <0>        0.05053
     16 H4          0.3269    1.4960    0.8051 HC        1 <0>        0.05053
     17 H5          1.6808   -2.8246    0.9221 H1        1 <0>        0.04259
     18 H6          2.8961   -1.5630    1.0690 H1        1 <0>        0.04259
     19 H7          1.8327    0.6054   -0.5764 H1        1 <0>        0.03942
     20 H8          1.9063    0.0677   -2.2636 H1        1 <0>        0.03942
     21 H9         -0.6414   -1.9469    2.0221 H1        1 <0>        0.03986
     22 H10        -0.5790   -1.7246    0.2811 H1        1 <0>        0.03986
     23 H11        -2.2328   -0.1725    1.0995 HC        1 <0>        0.04794
     24 H12        -0.1872    0.7672    3.1321 HC        1 <0>        0.03643
     25 H13        -1.5912   -0.2677    3.4562 HC        1 <0>        0.03643
     26 H14        -1.8284    1.4070    2.9205 HC        1 <0>        0.03643
     27 H15        -2.0860    0.5883   -2.6372 HC        1 <0>        0.04276
     28 H16        -2.7241    1.6064   -1.3320 HC        1 <0>        0.04276
     29 H17        -2.5071   -0.1354   -1.0730 HC        1 <0>        0.04276
     30 H18        -0.1334    2.0691   -2.8520 HC        1 <0>        0.04276
     31 H19         0.8795    2.4424   -1.4442 HC        1 <0>        0.04276
     32 H20        -0.7667    3.0955   -1.5508 HC        1 <0>        0.04276
@<TRIPOS>BOND
     1    1    3 1
     2    1    4 1
     3    2    6 1
     4    2    7 1
     5    3   11 1
     6    4   12 1
     7    5    6 1
     8    5   11 1
     9    6    8 1
    10    7    9 1
    11    7   10 1
    12    7   12 1
    13    1   13 1
    14    1   14 1
    15    2   15 1
    16    2   16 1
    17    3   17 1
    18    3   18 1
    19    4   19 1
    20    4   20 1
    21    5   21 1
    22    5   22 1
    23    6   23 1
    24    8   24 1
    25    8   25 1
    26    8   26 1
    27    9   27 1
    28    9   28 1
    29    9   29 1
    30   10   30 1
    31   10   31 1
    32   10   32 1
@<TRIPOS>SUBSTRUCTURE
     1 <0>         1 GROUP 0 A     ****
