@<TRIPOS>MOLECULE
AlkEthOH_c283
   27    26     1     0     0
SMALL
USER_CHARGES

@<TRIPOS>ATOM
      1 C1         -0.3474   -1.0477   -1.7664 CT        1 <0>       -0.09175
      2 C2         -0.1213   -2.4438    0.2823 CT        1 <0>       -0.09175
      3 C3          1.9082   -0.1118    0.1567 CT        1 <0>       -0.08919
      4 C4          0.2316    0.0982    1.9879 CT        1 <0>       -0.08919
      5 C5         -0.0005    1.5231   -0.0481 CT        1 <0>       -0.07727
      6 C6         -1.4803    1.8779    0.0727 CT        1 <0>        0.13093
      7 C7         -0.4433   -1.0327   -0.2322 CT        1 <0>       -0.05754
      8 C8          0.4052    0.1029    0.4516 CT        1 <0>       -0.04343
      9 O1         -1.6643    3.2092   -0.3971 OH        1 <0>       -0.60237
     10 H1          0.6751   -1.2290   -2.1083 HC        1 <0>        0.03466
     11 H2         -0.6495   -0.0766   -2.1759 HC        1 <0>        0.03466
     12 H3         -1.0019   -1.8044   -2.2092 HC        1 <0>        0.03466
     13 H4          0.9196   -2.7191    0.0928 HC        1 <0>        0.03466
     14 H5         -0.2685   -2.4980    1.3670 HC        1 <0>        0.03466
     15 H6         -0.7674   -3.2003   -0.1731 HC        1 <0>        0.03466
     16 H7          2.1100   -0.1202   -0.9195 HC        1 <0>        0.03521
     17 H8          2.2720   -1.0587    0.5692 HC        1 <0>        0.03521
     18 H9          2.5164    0.6826    0.6046 HC        1 <0>        0.03521
     19 H10        -0.8132    0.2458    2.2787 HC        1 <0>        0.03521
     20 H11         0.8120    0.9066    2.4485 HC        1 <0>        0.03521
     21 H12         0.5796   -0.8376    2.4364 HC        1 <0>        0.03521
     22 H13         0.5887    2.2912    0.4699 HC        1 <0>        0.05553
     23 H14         0.2882    1.6342   -1.1033 HC        1 <0>        0.05553
     24 H15        -1.8216    1.8389    1.1102 H1        1 <0>        0.02194
     25 H16        -2.1025    1.2163   -0.5360 H1        1 <0>        0.02194
     26 H17        -1.5001   -0.8452   -0.0001 HC        1 <0>        0.03996
     27 H18        -2.6101    3.4066   -0.3089 HO        1 <0>        0.39744
@<TRIPOS>BOND
     1    1    7 1
     2    2    7 1
     3    3    8 1
     4    4    8 1
     5    5    6 1
     6    5    8 1
     7    6    9 1
     8    7    8 1
     9    1   10 1
    10    1   11 1
    11    1   12 1
    12    2   13 1
    13    2   14 1
    14    2   15 1
    15    3   16 1
    16    3   17 1
    17    3   18 1
    18    4   19 1
    19    4   20 1
    20    4   21 1
    21    5   22 1
    22    5   23 1
    23    6   24 1
    24    6   25 1
    25    7   26 1
    26    9   27 1
@<TRIPOS>SUBSTRUCTURE
     1 <0>         1 GROUP 0 A     ****
