@<TRIPOS>MOLECULE
AlkEthOH_r151
   17    17     1     0     0
SMALL
USER_CHARGES

@<TRIPOS>ATOM
      1 C1         -0.4650    1.2425    0.8433 CT        1 <0>       -0.14682
      2 C2          1.0514    1.0598    0.7793 CT        1 <0>        0.12979
      3 C3         -1.1957    0.8470   -0.4317 CT        1 <0>        0.12979
      4 C4          0.8386   -1.2433    0.1510 CT        1 <0>        0.09602
      5 C5         -0.3086   -1.3414   -0.8430 CT        1 <0>        0.09602
      6 O1          1.5140   -0.0059   -0.0395 OS        1 <0>       -0.42021
      7 O2         -1.4349   -0.5587   -0.4594 OS        1 <0>       -0.42021
      8 H1         -0.8543    0.6430    1.6761 HC        1 <0>        0.05739
      9 H2         -0.6731    2.2908    1.0875 HC        1 <0>        0.05739
     10 H3          1.5031    1.9737    0.3774 H1        1 <0>        0.04925
     11 H4          1.4565    0.9322    1.7901 H1        1 <0>        0.04925
     12 H5         -2.1822    1.3227   -0.4282 H1        1 <0>        0.04925
     13 H6         -0.6780    1.1793   -1.3388 H1        1 <0>        0.04925
     14 H7          0.5092   -1.3611    1.1894 H1        1 <0>        0.05596
     15 H8          1.5646   -2.0330   -0.0678 H1        1 <0>        0.05596
     16 H9          0.0066   -1.0449   -1.8501 H1        1 <0>        0.05596
     17 H10        -0.6539   -2.3790   -0.8906 H1        1 <0>        0.05596
@<TRIPOS>BOND
     1    1    2 1
     2    1    3 1
     3    2    6 1
     4    3    7 1
     5    4    5 1
     6    4    6 1
     7    5    7 1
     8    1    8 1
     9    1    9 1
    10    2   10 1
    11    2   11 1
    12    3   12 1
    13    3   13 1
    14    4   14 1
    15    4   15 1
    16    5   16 1
    17    5   17 1
@<TRIPOS>SUBSTRUCTURE
     1 <0>         1 GROUP 0 A     ****
