@<TRIPOS>MOLECULE
AlkEthOH_c10
   15    14     1     0     0
SMALL
USER_CHARGES

@<TRIPOS>ATOM
      1 C1          0.3246    1.7475    0.2512 CT        1 <0>        0.10948
      2 C2         -0.1463   -1.6782   -1.0416 CT        1 <0>        0.32719
      3 C3         -0.3125    0.3664    0.1725 CT        1 <0>        0.29678
      4 O1          1.7072    1.6123    0.5494 OH        1 <0>       -0.59017
      5 O2          0.0198   -2.4969    0.1070 OH        1 <0>       -0.62121
      6 O3         -1.6952    0.5501   -0.1104 OH        1 <0>       -0.63308
      7 O4          0.3571   -0.3583   -0.8621 OS        1 <0>       -0.42386
      8 H1         -0.1479    2.3514    1.0328 H1        1 <0>        0.05859
      9 H2          0.2263    2.2788   -0.7018 H1        1 <0>        0.05859
     10 H3          0.4327   -2.1352   -1.8491 H2        1 <0>        0.06134
     11 H4         -1.1966   -1.6710   -1.3529 H2        1 <0>        0.06134
     12 H5         -0.1935   -0.1463    1.1347 H2        1 <0>        0.05894
     13 H6          2.0745    2.5102    0.5906 HO        1 <0>        0.41301
     14 H7         -0.3491   -3.3706   -0.1058 HO        1 <0>        0.40719
     15 H8         -2.0712    1.0751    0.6161 HO        1 <0>        0.41587
@<TRIPOS>BOND
     1    1    3 1
     2    1    4 1
     3    2    5 1
     4    2    7 1
     5    3    6 1
     6    3    7 1
     7    1    8 1
     8    1    9 1
     9    2   10 1
    10    2   11 1
    11    3   12 1
    12    4   13 1
    13    5   14 1
    14    6   15 1
@<TRIPOS>SUBSTRUCTURE
     1 <0>         1 GROUP 0 A     ****
