@<TRIPOS>MOLECULE
AlkEthOH_r540
   24    24     1     0     0
SMALL
USER_CHARGES

@<TRIPOS>ATOM
      1 C1          1.5769   -0.3581    0.3633 CT        1 <0>       -0.13819
      2 C2          1.0835   -1.7995    0.3074 CT        1 <0>        0.12999
      3 C3         -1.1833   -1.1376    0.0811 CT        1 <0>        0.10103
      4 C4          0.6209    0.5855   -0.3913 CT        1 <0>        0.16451
      5 C5         -0.8367    0.3626    0.0975 CT        1 <0>        0.13470
      6 C6          1.0995    2.0342   -0.2308 CT        1 <0>       -0.11653
      7 C7         -1.8748    1.1326   -0.7288 CT        1 <0>       -0.11557
      8 O1         -0.2360   -1.8980    0.8344 OS        1 <0>       -0.40728
      9 O2          0.6884    0.2615   -1.7861 OH        1 <0>       -0.60422
     10 O3         -0.9384    0.8168    1.4535 OH        1 <0>       -0.59278
     11 H1          1.6472   -0.0471    1.4132 HC        1 <0>        0.06292
     12 H2          2.5837   -0.3149   -0.0692 HC        1 <0>        0.06292
     13 H3          1.1019   -2.1970   -0.7140 H1        1 <0>        0.05058
     14 H4          1.7333   -2.4355    0.9170 H1        1 <0>        0.05058
     15 H5         -2.1580   -1.3076    0.5522 H1        1 <0>        0.05869
     16 H6         -1.2322   -1.5360   -0.9395 H1        1 <0>        0.05869
     17 H7          0.4252    2.6991   -0.7630 HC        1 <0>        0.04843
     18 H8          2.1014    2.1315   -0.6392 HC        1 <0>        0.04843
     19 H9          1.1106    2.2969    0.8232 HC        1 <0>        0.04843
     20 H10        -1.6322    2.1916   -0.7187 HC        1 <0>        0.04865
     21 H11        -2.8618    0.9831   -0.3003 HC        1 <0>        0.04865
     22 H12        -1.8651    0.7685   -1.7524 HC        1 <0>        0.04865
     23 H13         1.6094    0.3981   -2.0481 HO        1 <0>        0.40354
     24 H14        -1.8531    0.6536    1.7222 HO        1 <0>        0.40518
@<TRIPOS>BOND
     1    1    2 1
     2    1    4 1
     3    2    8 1
     4    3    5 1
     5    3    8 1
     6    4    5 1
     7    4    6 1
     8    4    9 1
     9    5    7 1
    10    5   10 1
    11    1   11 1
    12    1   12 1
    13    2   13 1
    14    2   14 1
    15    3   15 1
    16    3   16 1
    17    6   17 1
    18    6   18 1
    19    6   19 1
    20    7   20 1
    21    7   21 1
    22    7   22 1
    23    9   23 1
    24   10   24 1
@<TRIPOS>SUBSTRUCTURE
     1 <0>         1 GROUP 0 A     ****
