@<TRIPOS>MOLECULE
AlkEthOH_r1062
   24    24     1     0     0
SMALL
USER_CHARGES

@<TRIPOS>ATOM
      1 C1         -0.2691    0.3261   -1.5714 CT        1 <0>       -0.16578
      2 C2          0.9402   -0.5974   -1.6400 CT        1 <0>        0.13499
      3 C3          0.7603   -1.7523    0.4554 CT        1 <0>        0.09932
      4 C4         -0.3022   -0.8384    1.0671 CT        1 <0>        0.11481
      5 C5         -0.3494    1.1715   -0.2843 CT        1 <0>        0.34446
      6 C6         -0.3999   -1.0748    2.5701 CT        1 <0>       -0.09483
      7 C7          0.5231    2.4233   -0.4177 CT        1 <0>       -0.11614
      8 O1          0.6708   -1.8240   -0.9653 OS        1 <0>       -0.41841
      9 O2          0.1132    0.5155    0.8961 OS        1 <0>       -0.40934
     10 O3         -1.6868    1.6504   -0.1099 OH        1 <0>       -0.61714
     11 H1         -0.2743    0.9968   -2.4402 HC        1 <0>        0.06519
     12 H2         -1.1816   -0.2782   -1.6650 HC        1 <0>        0.06519
     13 H3          1.1164   -0.8614   -2.6882 H1        1 <0>        0.05311
     14 H4          1.8599   -0.1363   -1.2641 H1        1 <0>        0.05311
     15 H5          1.7728   -1.4329    0.7303 H1        1 <0>        0.05724
     16 H6          0.6243   -2.7765    0.8185 H1        1 <0>        0.05724
     17 H7         -1.2872   -1.0041    0.6153 H1        1 <0>        0.06997
     18 H8          0.5721   -0.9141    3.0356 HC        1 <0>        0.04708
     19 H9         -0.7217   -2.0974    2.7653 HC        1 <0>        0.04708
     20 H10        -1.1214   -0.3860    3.0086 HC        1 <0>        0.04708
     21 H11         0.4582    3.0102    0.4947 HC        1 <0>        0.05290
     22 H12         0.1759    3.0204   -1.2567 HC        1 <0>        0.05290
     23 H13         1.5560    2.1298   -0.5858 HC        1 <0>        0.05290
     24 H14        -1.8848    2.1859   -0.8913 HO        1 <0>        0.40707
@<TRIPOS>BOND
     1    1    2 1
     2    1    5 1
     3    2    8 1
     4    3    4 1
     5    3    8 1
     6    4    6 1
     7    4    9 1
     8    5    7 1
     9    5    9 1
    10    5   10 1
    11    1   11 1
    12    1   12 1
    13    2   13 1
    14    2   14 1
    15    3   15 1
    16    3   16 1
    17    4   17 1
    18    6   18 1
    19    6   19 1
    20    6   20 1
    21    7   21 1
    22    7   22 1
    23    7   23 1
    24   10   24 1
@<TRIPOS>SUBSTRUCTURE
     1 <0>         1 GROUP 0 A     ****
