@<TRIPOS>MOLECULE
AlkEthOH_r686
   19    19     1     0     0
SMALL
USER_CHARGES

@<TRIPOS>ATOM
      1 C1         -0.8068    0.9985   -1.2386 CT        1 <0>       -0.18366
      2 C2          0.2567    1.7391   -0.4442 CT        1 <0>        0.14570
      3 C3         -1.3169   -0.2011   -0.4466 CT        1 <0>        0.34715
      4 C4          0.7703   -0.2839    0.6797 CT        1 <0>        0.52587
      5 C5          1.9505   -1.2396    0.8655 CT        1 <0>       -0.08799
      6 O1          1.2897    0.8373   -0.0520 OS        1 <0>       -0.46578
      7 O2         -0.2140   -1.0210   -0.0620 OS        1 <0>       -0.40365
      8 O3         -2.2185   -0.9281   -1.2739 OH        1 <0>       -0.57715
      9 O4          0.2892    0.0988    1.9722 OH        1 <0>       -0.64019
     10 H1         -1.6309    1.6646   -1.5155 HC        1 <0>        0.06712
     11 H2         -0.3607    0.6365   -2.1742 HC        1 <0>        0.06712
     12 H3          0.7103    2.5214   -1.0609 H1        1 <0>        0.05772
     13 H4         -0.1675    2.2250    0.4412 H1        1 <0>        0.05772
     14 H5         -1.8677    0.1274    0.4438 H2        1 <0>        0.05707
     15 H6          1.6278   -2.1206    1.4174 HC        1 <0>        0.06617
     16 H7          2.7440   -0.7417    1.4199 HC        1 <0>        0.06617
     17 H8          2.3322   -1.5470   -0.1065 HC        1 <0>        0.06617
     18 H9         -2.9393   -0.3196   -1.5005 HO        1 <0>        0.40866
     19 H10         1.0295    0.5332    2.4217 HO        1 <0>        0.42578
@<TRIPOS>BOND
     1    1    2 1
     2    1    3 1
     3    2    6 1
     4    3    7 1
     5    3    8 1
     6    4    5 1
     7    4    6 1
     8    4    7 1
     9    4    9 1
    10    1   10 1
    11    1   11 1
    12    2   12 1
    13    2   13 1
    14    3   14 1
    15    5   15 1
    16    5   16 1
    17    5   17 1
    18    8   18 1
    19    9   19 1
@<TRIPOS>SUBSTRUCTURE
     1 <0>         1 GROUP 0 A     ****
