@<TRIPOS>MOLECULE
AlkEthOH_c1035
   29    28     1     0     0
SMALL
USER_CHARGES

@<TRIPOS>ATOM
      1 C1          3.2096    1.1425   -1.8113 CT        1 <0>       -0.09203
      2 C2         -1.8821   -1.3917    3.0675 CT        1 <0>       -0.09203
      3 C3         -0.9665    1.4580   -0.2514 CT        1 <0>       -0.08558
      4 C4         -0.8597   -0.8077   -1.3167 CT        1 <0>       -0.08558
      5 C5          1.6976    0.9723   -1.7466 CT        1 <0>       -0.07966
      6 C6         -1.8623   -0.7994    1.6645 CT        1 <0>       -0.07966
      7 C7          1.2757    0.2711   -0.4499 CT        1 <0>       -0.07229
      8 C8         -0.4251   -0.5753    1.1797 CT        1 <0>       -0.07229
      9 C9         -0.2579    0.0916   -0.2216 CT        1 <0>       -0.04736
     10 H1          3.5628    1.7183   -0.9500 HC        1 <0>        0.03251
     11 H2          3.7150    0.1715   -1.8009 HC        1 <0>        0.03251
     12 H3          3.5061    1.6753   -2.7206 HC        1 <0>        0.03251
     13 H4         -1.3577   -0.7305    3.7648 HC        1 <0>        0.03251
     14 H5         -1.3878   -2.3682    3.0886 HC        1 <0>        0.03251
     15 H6         -2.9087   -1.5174    3.4258 HC        1 <0>        0.03251
     16 H7         -0.5722    2.1361    0.5123 HC        1 <0>        0.03413
     17 H8         -0.8465    1.9428   -1.2265 HC        1 <0>        0.03413
     18 H9         -2.0387    1.3631   -0.0524 HC        1 <0>        0.03413
     19 H10        -0.3869   -1.7948   -1.3359 HC        1 <0>        0.03413
     20 H11        -1.9345   -0.9520   -1.1615 HC        1 <0>        0.03413
     21 H12        -0.7183   -0.3808   -2.3148 HC        1 <0>        0.03413
     22 H13         1.3781    0.3944   -2.6191 HC        1 <0>        0.03932
     23 H14         1.2360    1.9621   -1.8175 HC        1 <0>        0.03932
     24 H15        -2.3930   -1.4826    0.9943 HC        1 <0>        0.03932
     25 H16        -2.4152    0.1449    1.6813 HC        1 <0>        0.03932
     26 H17         1.7540   -0.7175   -0.4236 HC        1 <0>        0.03734
     27 H18         1.6944    0.8339    0.3957 HC        1 <0>        0.03734
     28 H19         0.0892   -1.5461    1.1716 HC        1 <0>        0.03734
     29 H20         0.0968    0.0385    1.9268 HC        1 <0>        0.03734
@<TRIPOS>BOND
     1    1    5 1
     2    2    6 1
     3    3    9 1
     4    4    9 1
     5    5    7 1
     6    6    8 1
     7    7    9 1
     8    8    9 1
     9    1   10 1
    10    1   11 1
    11    1   12 1
    12    2   13 1
    13    2   14 1
    14    2   15 1
    15    3   16 1
    16    3   17 1
    17    3   18 1
    18    4   19 1
    19    4   20 1
    20    4   21 1
    21    5   22 1
    22    5   23 1
    23    6   24 1
    24    6   25 1
    25    7   26 1
    26    7   27 1
    27    8   28 1
    28    8   29 1
@<TRIPOS>SUBSTRUCTURE
     1 <0>         1 GROUP 0 A     ****
