@<TRIPOS>MOLECULE
AlkEthOH_r826
   23    23     1     0     0
SMALL
USER_CHARGES

@<TRIPOS>ATOM
      1 C1          0.9870   -0.6302    0.4337 CT        1 <0>       -0.13948
      2 C2         -0.7105    1.2788   -1.3054 CT        1 <0>        0.09918
      3 C3         -0.3959    1.8780    0.0555 CT        1 <0>        0.09918
      4 C4          0.2046   -0.8998   -0.8561 CT        1 <0>        0.14299
      5 C5          0.1774    0.0753    1.5362 CT        1 <0>        0.14299
      6 C6          0.8870   -2.0004   -1.6642 CT        1 <0>       -0.09371
      7 C7         -0.5410   -0.9426    2.4199 CT        1 <0>       -0.09371
      8 O1          0.2155    0.2665   -1.6855 OS        1 <0>       -0.42265
      9 O2         -0.8240    0.9743    1.0659 OS        1 <0>       -0.42265
     10 H1          1.4068   -1.5586    0.8400 HC        1 <0>        0.05721
     11 H2          1.8457    0.0091    0.1871 HC        1 <0>        0.05721
     12 H3         -1.7252    0.8649   -1.3374 H1        1 <0>        0.05562
     13 H4         -0.6437    2.0626   -2.0666 H1        1 <0>        0.05562
     14 H5          0.6627    2.1356    0.1711 H1        1 <0>        0.05562
     15 H6         -0.9838    2.7925    0.1835 H1        1 <0>        0.05562
     16 H7         -0.8264   -1.2126   -0.6514 H1        1 <0>        0.04204
     17 H8          0.8678    0.6410    2.1742 H1        1 <0>        0.04204
     18 H9          1.9153   -1.7157   -1.8824 HC        1 <0>        0.04448
     19 H10         0.3542   -2.1558   -2.6012 HC        1 <0>        0.04448
     20 H11         0.8877   -2.9298   -1.0965 HC        1 <0>        0.04448
     21 H12        -1.2377   -1.5255    1.8198 HC        1 <0>        0.04448
     22 H13        -1.0914   -0.4264    3.2047 HC        1 <0>        0.04448
     23 H14         0.1855   -1.6134    2.8754 HC        1 <0>        0.04448
@<TRIPOS>BOND
     1    1    4 1
     2    1    5 1
     3    2    3 1
     4    2    8 1
     5    3    9 1
     6    4    6 1
     7    4    8 1
     8    5    7 1
     9    5    9 1
    10    1   10 1
    11    1   11 1
    12    2   12 1
    13    2   13 1
    14    3   14 1
    15    3   15 1
    16    4   16 1
    17    5   17 1
    18    6   18 1
    19    6   19 1
    20    6   20 1
    21    7   21 1
    22    7   22 1
    23    7   23 1
@<TRIPOS>SUBSTRUCTURE
     1 <0>         1 GROUP 0 A     ****
