@<TRIPOS>MOLECULE
AlkEthOH_r936
   25    25     1     0     0
SMALL
USER_CHARGES

@<TRIPOS>ATOM
      1 C1          1.7435    1.1144    0.3842 CT        1 <0>       -0.07385
      2 C2          1.9168   -0.1936    1.1496 CT        1 <0>       -0.10596
      3 C3          0.8954    1.0199   -0.8861 CT        1 <0>       -0.07149
      4 C4          0.6068   -0.8905    1.4826 CT        1 <0>        0.13159
      5 C5         -0.5969    0.7681   -0.5970 CT        1 <0>       -0.08988
      6 C6         -0.9225   -0.7315   -0.3918 CT        1 <0>        0.14303
      7 C7         -1.4479    1.3485   -1.7358 CT        1 <0>       -0.09042
      8 C8         -2.2728   -0.9582    0.2918 CT        1 <0>       -0.12116
      9 O1          0.0776   -1.4772    0.3023 OS        1 <0>       -0.42053
     10 H1          1.3125    1.8701    1.0530 HC        1 <0>        0.03706
     11 H2          2.7400    1.4834    0.1109 HC        1 <0>        0.03706
     12 H3          2.5443   -0.8666    0.5521 HC        1 <0>        0.04835
     13 H4          2.4594    0.0178    2.0784 HC        1 <0>        0.04835
     14 H5          1.0057    1.9775   -1.4112 HC        1 <0>        0.04606
     15 H6          1.2958    0.2511   -1.5581 HC        1 <0>        0.04606
     16 H7          0.8184   -1.7144    2.1725 H1        1 <0>        0.04288
     17 H8         -0.1056   -0.2261    1.9826 H1        1 <0>        0.04288
     18 H9         -0.8663    1.3213    0.3126 HC        1 <0>        0.05015
     19 H10        -0.9821   -1.2067   -1.3791 H1        1 <0>        0.06828
     20 H11        -1.2148    0.8297   -2.6609 HC        1 <0>        0.03572
     21 H12        -1.2283    2.4062   -1.8473 HC        1 <0>        0.03572
     22 H13        -2.5005    1.2187   -1.5018 HC        1 <0>        0.03572
     23 H14        -2.2640   -0.5030    1.2797 HC        1 <0>        0.04146
     24 H15        -2.4588   -2.0254    0.3900 HC        1 <0>        0.04146
     25 H16        -3.0645   -0.5088   -0.3035 HC        1 <0>        0.04146
@<TRIPOS>BOND
     1    1    2 1
     2    1    3 1
     3    2    4 1
     4    3    5 1
     5    4    9 1
     6    5    6 1
     7    5    7 1
     8    6    8 1
     9    6    9 1
    10    1   10 1
    11    1   11 1
    12    2   12 1
    13    2   13 1
    14    3   14 1
    15    3   15 1
    16    4   16 1
    17    4   17 1
    18    5   18 1
    19    6   19 1
    20    7   20 1
    21    7   21 1
    22    7   22 1
    23    8   23 1
    24    8   24 1
    25    8   25 1
@<TRIPOS>SUBSTRUCTURE
     1 <0>         1 GROUP 0 A     ****
