@<TRIPOS>MOLECULE
AlkEthOH_r198
   22    22     1     0     0
SMALL
USER_CHARGES

@<TRIPOS>ATOM
      1 C1         -1.6503    0.0386   -0.3325 CT        1 <0>       -0.14697
      2 C2         -1.4718   -1.1457   -1.2802 CT        1 <0>        0.13028
      3 C3          0.7862   -1.5946   -0.6530 CT        1 <0>        0.32041
      4 C4         -0.4262    0.9607   -0.3228 CT        1 <0>        0.13089
      5 C5          0.7361    0.4849    0.5823 CT        1 <0>        0.34847
      6 C6          0.5358    0.8837    2.0511 CT        1 <0>       -0.10097
      7 O1         -0.5292   -2.1076   -0.8278 OS        1 <0>       -0.42939
      8 O2          0.9284   -0.9308    0.5921 OS        1 <0>       -0.46352
      9 O3         -0.8305    2.2719    0.0829 OH        1 <0>       -0.58842
     10 O4          1.9215    1.1389    0.1079 OH        1 <0>       -0.62313
     11 H1         -2.5283    0.6110   -0.6572 HC        1 <0>        0.06713
     12 H2         -1.8662   -0.3134    0.6828 HC        1 <0>        0.06713
     13 H3         -2.4303   -1.6680   -1.3729 H1        1 <0>        0.04911
     14 H4         -1.1962   -0.8124   -2.2877 H1        1 <0>        0.04911
     15 H5          1.4491   -2.4644   -0.6155 H2        1 <0>        0.06873
     16 H6          1.1116   -0.9854   -1.5053 H2        1 <0>        0.06873
     17 H7         -0.0626    1.0775   -1.3516 H1        1 <0>        0.05262
     18 H8          1.3757    0.5272    2.6402 HC        1 <0>        0.05942
     19 H9         -0.3829    0.4402    2.4239 HC        1 <0>        0.05942
     20 H10         0.4730    1.9655    2.1264 HC        1 <0>        0.05942
     21 H11        -1.4860    2.5666   -0.5662 HO        1 <0>        0.40467
     22 H12         2.6408    0.8355    0.6789 HO        1 <0>        0.41686
@<TRIPOS>BOND
     1    1    2 1
     2    1    4 1
     3    2    7 1
     4    3    7 1
     5    3    8 1
     6    4    5 1
     7    4    9 1
     8    5    6 1
     9    5    8 1
    10    5   10 1
    11    1   11 1
    12    1   12 1
    13    2   13 1
    14    2   14 1
    15    3   15 1
    16    3   16 1
    17    4   17 1
    18    6   18 1
    19    6   19 1
    20    6   20 1
    21    9   21 1
    22   10   22 1
@<TRIPOS>SUBSTRUCTURE
     1 <0>         1 GROUP 0 A     ****
