@<TRIPOS>MOLECULE
AlkEthOH_c1243
   23    22     1     0     0
SMALL
USER_CHARGES

@<TRIPOS>ATOM
      1 C1         -3.1875    2.5488   -0.8105 CT        1 <0>       -0.09711
      2 C2          1.0463   -1.0493    2.2656 CT        1 <0>       -0.12423
      3 C3          1.0857    0.7447   -1.7592 CT        1 <0>       -0.11762
      4 C4         -2.3371    1.3079   -0.6411 CT        1 <0>        0.13387
      5 C5          0.5896   -1.0420    0.8162 CT        1 <0>        0.33503
      6 C6         -0.1323    0.4749   -0.8853 CT        1 <0>        0.34077
      7 O1         -0.5581   -1.8796    0.7250 OH        1 <0>       -0.62812
      8 O2         -0.9999    1.6077   -1.0198 OS        1 <0>       -0.41539
      9 O3          0.2973    0.3107    0.4679 OS        1 <0>       -0.47957
     10 H1         -2.8202    3.3627   -0.1792 HC        1 <0>        0.04429
     11 H2         -3.1825    2.8808   -1.8539 HC        1 <0>        0.04429
     12 H3         -4.2301    2.3408   -0.5477 HC        1 <0>        0.04429
     13 H4          0.2640   -0.6471    2.9197 HC        1 <0>        0.05529
     14 H5          1.9363   -0.4260    2.3984 HC        1 <0>        0.05529
     15 H6          1.2641   -2.0674    2.6035 HC        1 <0>        0.05529
     16 H7          1.6353    1.6281   -1.4217 HC        1 <0>        0.05309
     17 H8          0.7811    0.9262   -2.7963 HC        1 <0>        0.05309
     18 H9          1.7616   -0.1165   -1.7628 HC        1 <0>        0.05309
     19 H10        -2.7098    0.4978   -1.2751 H1        1 <0>        0.03169
     20 H11        -2.3425    0.9780    0.4020 H1        1 <0>        0.03169
     21 H12         1.3892   -1.4483    0.1862 H2        1 <0>        0.07086
     22 H13        -0.6567   -0.4158   -1.2532 H2        1 <0>        0.05006
     23 H14        -0.2904   -2.7699    1.0087 HO        1 <0>        0.41006
@<TRIPOS>BOND
     1    1    4 1
     2    2    5 1
     3    3    6 1
     4    4    8 1
     5    5    7 1
     6    5    9 1
     7    6    8 1
     8    6    9 1
     9    1   10 1
    10    1   11 1
    11    1   12 1
    12    2   13 1
    13    2   14 1
    14    2   15 1
    15    3   16 1
    16    3   17 1
    17    3   18 1
    18    4   19 1
    19    4   20 1
    20    5   21 1
    21    6   22 1
    22    7   23 1
@<TRIPOS>SUBSTRUCTURE
     1 <0>         1 GROUP 0 A     ****
