@<TRIPOS>MOLECULE
AlkEthOH_r1040
   25    25     1     0     0
SMALL
USER_CHARGES

@<TRIPOS>ATOM
      1 C1         -2.0135   -0.5070   -0.4906 CT        1 <0>       -0.11818
      2 C2         -1.3085   -1.8247   -0.1700 CT        1 <0>        0.13849
      3 C3          0.8896   -1.7362    0.7386 CT        1 <0>        0.34327
      4 C4         -1.0455    0.6312   -0.8420 CT        1 <0>        0.16016
      5 C5          1.1385    0.6167    0.1693 CT        1 <0>        0.53719
      6 C6         -1.8181    1.8917   -1.2152 CT        1 <0>       -0.10157
      7 C7          1.7964    0.9702    1.5097 CT        1 <0>       -0.11596
      8 O1         -0.5102   -1.6809    1.0018 OS        1 <0>       -0.43719
      9 O2          1.3829   -0.7552   -0.1706 OS        1 <0>       -0.51655
     10 O3         -0.2525    0.9474    0.3065 OS        1 <0>       -0.41961
     11 O4          1.7407    1.4467   -0.8375 OH        1 <0>       -0.61107
     12 H1         -2.7097   -0.6710   -1.3211 HC        1 <0>        0.05798
     13 H2         -2.5999   -0.2118    0.3890 HC        1 <0>        0.05798
     14 H3         -2.0653   -2.5854    0.0492 H1        1 <0>        0.04441
     15 H4         -0.7260   -2.1819   -1.0278 H1        1 <0>        0.04441
     16 H5          1.4236   -1.6656    1.6911 H2        1 <0>        0.06168
     17 H6          1.1308   -2.7224    0.3258 H2        1 <0>        0.06168
     18 H7         -0.4306    0.3332   -1.6983 H1        1 <0>        0.06771
     19 H8         -2.4389    2.2090   -0.3777 HC        1 <0>        0.04429
     20 H9         -2.4573    1.6949   -2.0755 HC        1 <0>        0.04429
     21 H10        -1.1235    2.6932   -1.4653 HC        1 <0>        0.04429
     22 H11         1.6000    2.0126    1.7494 HC        1 <0>        0.06219
     23 H12         2.8703    0.8130    1.4422 HC        1 <0>        0.06219
     24 H13         1.3888    0.3376    2.2948 HC        1 <0>        0.06219
     25 H14         2.6847    1.2354   -0.8291 HO        1 <0>        0.42573
@<TRIPOS>BOND
     1    1    2 1
     2    1    4 1
     3    2    8 1
     4    3    8 1
     5    3    9 1
     6    4    6 1
     7    4   10 1
     8    5    7 1
     9    5    9 1
    10    5   10 1
    11    5   11 1
    12    1   12 1
    13    1   13 1
    14    2   14 1
    15    2   15 1
    16    3   16 1
    17    3   17 1
    18    4   18 1
    19    6   19 1
    20    6   20 1
    21    6   21 1
    22    7   22 1
    23    7   23 1
    24    7   24 1
    25   11   25 1
@<TRIPOS>SUBSTRUCTURE
     1 <0>         1 GROUP 0 A     ****
