@<TRIPOS>MOLECULE
AlkEthOH_c568
   23    22     1     0     0
SMALL
USER_CHARGES

@<TRIPOS>ATOM
      1 C1         -2.7311    1.9754    1.4609 CT        1 <0>       -0.10825
      2 C2         -0.2769    2.0989    2.0204 CT        1 <0>       -0.10825
      3 C3          0.4644   -1.0207   -0.4925 CT        1 <0>       -0.11665
      4 C4          1.2334   -1.2222    0.8077 CT        1 <0>        0.13593
      5 C5         -1.3110    1.7921    0.9479 CT        1 <0>        0.14093
      6 C6         -0.2140    0.3462   -0.5740 CT        1 <0>        0.33473
      7 O1          1.8357   -2.5100    0.8151 OH        1 <0>       -0.60267
      8 O2         -0.8588    0.4231   -1.8428 OH        1 <0>       -0.61727
      9 O3         -1.1428    0.4523    0.5055 OS        1 <0>       -0.40779
     10 H1         -2.9268    1.3343    2.3258 HC        1 <0>        0.04323
     11 H2         -2.8994    3.0176    1.7525 HC        1 <0>        0.04323
     12 H3         -3.4652    1.7451    0.6808 HC        1 <0>        0.04323
     13 H4         -0.4140    1.4608    2.8987 HC        1 <0>        0.04323
     14 H5         -0.3515    3.1459    2.3334 HC        1 <0>        0.04323
     15 H6          0.7404    1.9564    1.6393 HC        1 <0>        0.04323
     16 H7         -0.2858   -1.8170   -0.5881 HC        1 <0>        0.06987
     17 H8          1.1360   -1.1582   -1.3494 HC        1 <0>        0.06987
     18 H9          2.0211   -0.4708    0.9237 H1        1 <0>        0.02940
     19 H10         0.5693   -1.1599    1.6749 H1        1 <0>        0.02940
     20 H11        -1.1471    2.4455    0.0847 H1        1 <0>        0.05006
     21 H12         0.5457    1.1353   -0.5080 H2        1 <0>        0.03033
     22 H13         2.3111   -2.5915    1.6575 HO        1 <0>        0.40216
     23 H14        -0.1706    0.3240   -2.5224 HO        1 <0>        0.40882
@<TRIPOS>BOND
     1    1    5 1
     2    2    5 1
     3    3    4 1
     4    3    6 1
     5    4    7 1
     6    5    9 1
     7    6    8 1
     8    6    9 1
     9    1   10 1
    10    1   11 1
    11    1   12 1
    12    2   13 1
    13    2   14 1
    14    2   15 1
    15    3   16 1
    16    3   17 1
    17    4   18 1
    18    4   19 1
    19    5   20 1
    20    6   21 1
    21    7   22 1
    22    8   23 1
@<TRIPOS>SUBSTRUCTURE
     1 <0>         1 GROUP 0 A     ****
