@<TRIPOS>MOLECULE
AlkEthOH_c130
   26    25     1     0     0
SMALL
USER_CHARGES

@<TRIPOS>ATOM
      1 C1         -0.7024    0.6446   -1.9987 CT        1 <0>       -0.12340
      2 C2         -0.9141    2.3914   -0.2171 CT        1 <0>       -0.12340
      3 C3          1.6444    0.5781    0.0324 CT        1 <0>       -0.12973
      4 C4          0.0812   -1.4075    0.2713 CT        1 <0>       -0.11232
      5 C5          0.9465   -2.1974    1.2538 CT        1 <0>        0.13022
      6 C6         -0.8663    0.8787   -0.4905 CT        1 <0>        0.16702
      7 C7          0.2137    0.1355    0.3731 CT        1 <0>        0.17525
      8 O1          0.7436   -3.5868    1.0207 OH        1 <0>       -0.59654
      9 O2         -2.1538    0.3598   -0.1173 OH        1 <0>       -0.58988
     10 O3          0.0026    0.4942    1.7483 OH        1 <0>       -0.58810
     11 H1         -0.6627   -0.4196   -2.2486 HC        1 <0>        0.04596
     12 H2         -1.5110    1.1125   -2.5688 HC        1 <0>        0.04596
     13 H3          0.2222    1.1083   -2.3633 HC        1 <0>        0.04596
     14 H4         -1.0310    2.5872    0.8558 HC        1 <0>        0.04596
     15 H5         -1.7434    2.8806   -0.7355 HC        1 <0>        0.04596
     16 H6          0.0214    2.8805   -0.5092 HC        1 <0>        0.04596
     17 H7          1.7634    1.6637    0.0972 HC        1 <0>        0.04461
     18 H8          1.9285    0.2620   -0.9774 HC        1 <0>        0.04461
     19 H9          2.3799    0.1072    0.6918 HC        1 <0>        0.04461
     20 H10         0.3153   -1.7478   -0.7445 HC        1 <0>        0.07735
     21 H11        -0.9598   -1.7055    0.4526 HC        1 <0>        0.07735
     22 H12         2.0096   -1.9858    1.1102 H1        1 <0>        0.01732
     23 H13         0.6721   -1.9813    2.2905 H1        1 <0>        0.01732
     24 H14         1.3034   -4.0601    1.6564 HO        1 <0>        0.39873
     25 H15        -2.7995    0.8566   -0.6370 HO        1 <0>        0.39834
     26 H16         0.6722    0.0134    2.2529 HO        1 <0>        0.39488
@<TRIPOS>BOND
     1    1    6 1
     2    2    6 1
     3    3    7 1
     4    4    5 1
     5    4    7 1
     6    5    8 1
     7    6    7 1
     8    6    9 1
     9    7   10 1
    10    1   11 1
    11    1   12 1
    12    1   13 1
    13    2   14 1
    14    2   15 1
    15    2   16 1
    16    3   17 1
    17    3   18 1
    18    3   19 1
    19    4   20 1
    20    4   21 1
    21    5   22 1
    22    5   23 1
    23    8   24 1
    24    9   25 1
    25   10   26 1
@<TRIPOS>SUBSTRUCTURE
     1 <0>         1 GROUP 0 A     ****
