@<TRIPOS>MOLECULE
AlkEthOH_r854
   25    25     1     0     0
SMALL
USER_CHARGES

@<TRIPOS>ATOM
      1 C1          0.7207   -0.0505    0.8239 CT        1 <0>       -0.07587
      2 C2          0.0862   -0.7383    2.0257 CT        1 <0>       -0.10815
      3 C3          1.9649   -0.8111    0.3775 CT        1 <0>       -0.09883
      4 C4          1.1165   -0.9516    3.1341 CT        1 <0>        0.14238
      5 C5          2.9378   -1.0798    1.5400 CT        1 <0>        0.15328
      6 C6          0.5176   -1.7539    4.2829 CT        1 <0>       -0.09015
      7 C7          3.6743    0.1928    1.9841 CT        1 <0>       -0.10126
      8 C8          3.9849   -2.1095    1.0925 CT        1 <0>       -0.10126
      9 O1          2.2455   -1.6802    2.6453 OS        1 <0>       -0.41783
     10 H1          0.0000    0.0004   -0.0001 HC        1 <0>        0.04147
     11 H2          0.9809    0.9826    1.0808 HC        1 <0>        0.04147
     12 H3         -0.7590   -0.1460    2.3936 HC        1 <0>        0.04884
     13 H4         -0.3107   -1.7081    1.6988 HC        1 <0>        0.04884
     14 H5          1.6302   -1.7698   -0.0412 HC        1 <0>        0.04856
     15 H6          2.4656   -0.2688   -0.4332 HC        1 <0>        0.04856
     16 H7          1.4504    0.0120    3.5343 H1        1 <0>        0.03346
     17 H8          0.1732   -2.7226    3.9209 HC        1 <0>        0.04369
     18 H9         -0.3273   -1.2158    4.7124 HC        1 <0>        0.04369
     19 H10         1.2678   -1.9118    5.0577 HC        1 <0>        0.04369
     20 H11         4.3462   -0.0468    2.8029 HC        1 <0>        0.04257
     21 H12         2.9502    0.9322    2.3127 HC        1 <0>        0.04257
     22 H13         4.2451    0.5887    1.1495 HC        1 <0>        0.04257
     23 H14         4.6738   -2.3025    1.9096 HC        1 <0>        0.04257
     24 H15         4.5333   -1.7197    0.2399 HC        1 <0>        0.04257
     25 H16         3.4864   -3.0329    0.8122 HC        1 <0>        0.04257
@<TRIPOS>BOND
     1    1    2 1
     2    1    3 1
     3    2    4 1
     4    3    5 1
     5    4    6 1
     6    4    9 1
     7    5    7 1
     8    5    8 1
     9    5    9 1
    10    1   10 1
    11    1   11 1
    12    2   12 1
    13    2   13 1
    14    3   14 1
    15    3   15 1
    16    4   16 1
    17    6   17 1
    18    6   18 1
    19    6   19 1
    20    7   20 1
    21    7   21 1
    22    7   22 1
    23    8   23 1
    24    8   24 1
    25    8   25 1
@<TRIPOS>SUBSTRUCTURE
     1 <0>         1 GROUP 0 A     ****
