@<TRIPOS>MOLECULE
AlkEthOH_r962
   24    24     1     0     0
SMALL
USER_CHARGES

@<TRIPOS>ATOM
      1 C1          0.9650   -0.5936   -1.8858 CT        1 <0>       -0.10753
      2 C2          0.6807   -1.6845   -0.8523 CT        1 <0>       -0.10384
      3 C3         -0.0314    0.5587   -1.8581 CT        1 <0>        0.15182
      4 C4          0.5512   -1.1605    0.5797 CT        1 <0>        0.15199
      5 C5         -0.4746    1.0106    0.4762 CT        1 <0>        0.53138
      6 C6          0.4234   -2.3234    1.5581 CT        1 <0>       -0.09679
      7 C7         -1.8843    1.6126    0.4235 CT        1 <0>       -0.10417
      8 O1          0.2102    1.3844   -0.7247 OS        1 <0>       -0.49128
      9 O2         -0.6497   -0.3955    0.6874 OS        1 <0>       -0.43695
     10 O3          0.2094    1.5912    1.5961 OH        1 <0>       -0.61534
     11 H1          1.9758   -0.2039   -1.7132 HC        1 <0>        0.05159
     12 H2          0.9568   -1.0517   -2.8817 HC        1 <0>        0.05159
     13 H3         -0.2494   -2.1920   -1.1398 HC        1 <0>        0.05054
     14 H4          1.4851   -2.4281   -0.9066 HC        1 <0>        0.05054
     15 H5          0.1391    1.1850   -2.7403 H1        1 <0>        0.05135
     16 H6         -1.0686    0.2102   -1.9039 H1        1 <0>        0.05135
     17 H7          1.4330   -0.5709    0.8570 H1        1 <0>        0.06950
     18 H8         -0.4473   -2.9274    1.3050 HC        1 <0>        0.04488
     19 H9          0.3091   -1.9437    2.5728 HC        1 <0>        0.04488
     20 H10         1.3148   -2.9479    1.5108 HC        1 <0>        0.04488
     21 H11        -2.4303    1.3449    1.3252 HC        1 <0>        0.05960
     22 H12        -2.4141    1.2277   -0.4449 HC        1 <0>        0.05960
     23 H13        -1.8169    2.6959    0.3525 HC        1 <0>        0.05960
     24 H14         0.2313    2.5451    1.4337 HO        1 <0>        0.43081
@<TRIPOS>BOND
     1    1    2 1
     2    1    3 1
     3    2    4 1
     4    3    8 1
     5    4    6 1
     6    4    9 1
     7    5    7 1
     8    5    8 1
     9    5    9 1
    10    5   10 1
    11    1   11 1
    12    1   12 1
    13    2   13 1
    14    2   14 1
    15    3   15 1
    16    3   16 1
    17    4   17 1
    18    6   18 1
    19    6   19 1
    20    6   20 1
    21    7   21 1
    22    7   22 1
    23    7   23 1
    24   10   24 1
@<TRIPOS>SUBSTRUCTURE
     1 <0>         1 GROUP 0 A     ****
