@<TRIPOS>MOLECULE
AlkEthOH_c325
   21    20     1     0     0
SMALL
USER_CHARGES

@<TRIPOS>ATOM
      1 C1          0.5633   -0.9368   -0.0378 CT        1 <0>       -0.08982
      2 C2         -0.6173   -1.4629   -2.1819 CT        1 <0>       -0.08982
      3 C3          1.8318   -3.3100   -1.6739 CT        1 <0>       -0.08783
      4 C4          0.7192   -3.9983    0.4804 CT        1 <0>        0.13259
      5 C5         -0.2235   -2.0043   -0.8032 CT        1 <0>       -0.06293
      6 C6          0.5040   -3.3724   -0.9070 CT        1 <0>       -0.06148
      7 O1          1.2374   -5.3162    0.3401 OH        1 <0>       -0.60372
      8 H1          1.5155   -0.7124   -0.5268 HC        1 <0>        0.03426
      9 H2          0.7938   -1.2860    0.9748 HC        1 <0>        0.03426
     10 H3         -0.0028   -0.0052    0.0577 HC        1 <0>        0.03426
     11 H4          0.2578   -1.2615   -2.8076 HC        1 <0>        0.03426
     12 H5         -1.1717   -0.5234   -2.0799 HC        1 <0>        0.03426
     13 H6         -1.2630   -2.1718   -2.7109 HC        1 <0>        0.03426
     14 H7          2.5490   -2.6472   -1.1814 HC        1 <0>        0.03874
     15 H8          1.6786   -2.9182   -2.6854 HC        1 <0>        0.03874
     16 H9          2.2892   -4.2996   -1.7710 HC        1 <0>        0.03874
     17 H10         1.4280   -3.4169    1.0784 H1        1 <0>        0.02176
     18 H11        -0.2285   -4.0668    1.0247 H1        1 <0>        0.02176
     19 H12        -1.1601   -2.1738   -0.2544 HC        1 <0>        0.04093
     20 H13        -0.1469   -4.0552   -1.4712 HC        1 <0>        0.05888
     21 H14         1.3551   -5.6660    1.2376 HO        1 <0>        0.39790
@<TRIPOS>BOND
     1    1    5 1
     2    2    5 1
     3    3    6 1
     4    4    6 1
     5    4    7 1
     6    5    6 1
     7    1    8 1
     8    1    9 1
     9    1   10 1
    10    2   11 1
    11    2   12 1
    12    2   13 1
    13    3   14 1
    14    3   15 1
    15    3   16 1
    16    4   17 1
    17    4   18 1
    18    5   19 1
    19    6   20 1
    20    7   21 1
@<TRIPOS>SUBSTRUCTURE
     1 <0>         1 GROUP 0 A     ****
