@<TRIPOS>MOLECULE
AlkEthOH_c897
   24    23     1     0     0
SMALL
USER_CHARGES

@<TRIPOS>ATOM
      1 C1          1.6072   -0.6100    1.6708 CT        1 <0>       -0.09672
      2 C2         -2.2127    1.4695    0.2839 CT        1 <0>       -0.13175
      3 C3         -1.7874   -0.9670    0.6128 CT        1 <0>       -0.13175
      4 C4          1.8488    0.7823   -1.7301 CT        1 <0>        0.32748
      5 C5          1.0793   -0.2267    0.2944 CT        1 <0>        0.34026
      6 C6         -1.2653    0.3140   -0.0411 CT        1 <0>        0.35177
      7 O1          1.4565   -0.2926   -2.5713 OH        1 <0>       -0.62236
      8 O2         -1.2685    0.1840   -1.4629 OH        1 <0>       -0.64910
      9 O3          2.1796    0.3641   -0.4100 OS        1 <0>       -0.44464
     10 O4          0.0119    0.7042    0.4783 OS        1 <0>       -0.44046
     11 H1          1.9316    0.2812    2.2204 HC        1 <0>        0.05233
     12 H2          2.4733   -1.2741    1.5856 HC        1 <0>        0.05233
     13 H3          0.8377   -1.1013    2.2729 HC        1 <0>        0.05233
     14 H4         -1.8550    2.3981   -0.1768 HC        1 <0>        0.05403
     15 H5         -3.2199    1.2845   -0.1051 HC        1 <0>        0.05403
     16 H6         -2.2716    1.6467    1.3633 HC        1 <0>        0.05403
     17 H7         -1.1312   -1.8174    0.4000 HC        1 <0>        0.05403
     18 H8         -2.7862   -1.2249    0.2448 HC        1 <0>        0.05403
     19 H9         -1.8786   -0.8463    1.6978 HC        1 <0>        0.05403
     20 H10         1.0491    1.5291   -1.7068 H2        1 <0>        0.06597
     21 H11         2.7311    1.2608   -2.1669 H2        1 <0>        0.06597
     22 H12         0.7626   -1.1336   -0.2327 H2        1 <0>        0.05663
     23 H13         1.2518    0.0855   -3.4432 HO        1 <0>        0.41181
     24 H14        -2.1766   -0.0068   -1.7515 HO        1 <0>        0.41572
@<TRIPOS>BOND
     1    1    5 1
     2    2    6 1
     3    3    6 1
     4    4    7 1
     5    4    9 1
     6    5    9 1
     7    5   10 1
     8    6    8 1
     9    6   10 1
    10    1   11 1
    11    1   12 1
    12    1   13 1
    13    2   14 1
    14    2   15 1
    15    2   16 1
    16    3   17 1
    17    3   18 1
    18    3   19 1
    19    4   20 1
    20    4   21 1
    21    5   22 1
    22    7   23 1
    23    8   24 1
@<TRIPOS>SUBSTRUCTURE
     1 <0>         1 GROUP 0 A     ****
