@<TRIPOS>MOLECULE
AlkEthOH_r587
   24    24     1     0     0
SMALL
USER_CHARGES

@<TRIPOS>ATOM
      1 C1          0.3644   -0.3073    1.5528 CT        1 <0>       -0.10817
      2 C2         -0.4521   -1.5591    1.2371 CT        1 <0>        0.13933
      3 C3         -1.7819   -1.0676   -0.6748 CT        1 <0>        0.33609
      4 C4         -0.2673    0.7758   -0.6969 CT        1 <0>        0.34704
      5 C5          0.8683    0.5123    0.3319 CT        1 <0>       -0.05114
      6 C6          2.0410   -0.2391   -0.3376 CT        1 <0>       -0.08423
      7 C7          1.4155    1.8569    0.8611 CT        1 <0>       -0.08423
      8 O1         -1.7311   -1.1779    0.7434 OS        1 <0>       -0.46043
      9 O2         -0.6634   -0.4522   -1.3019 OS        1 <0>       -0.48399
     10 O3          0.2066    1.6583   -1.7153 OH        1 <0>       -0.59770
     11 H1         -0.2615    0.3492    2.1730 HC        1 <0>        0.05302
     12 H2          1.2229   -0.5971    2.1723 HC        1 <0>        0.05302
     13 H3          0.0590   -2.2491    0.5570 H1        1 <0>        0.05531
     14 H4         -0.6278   -2.1013    2.1726 H1        1 <0>        0.05531
     15 H5         -1.8875   -2.0731   -1.0954 H2        1 <0>        0.05843
     16 H6         -2.6874   -0.5108   -0.9387 H2        1 <0>        0.05843
     17 H7         -1.1184    1.2719   -0.2119 H2        1 <0>        0.04459
     18 H8          2.3875    0.3363   -1.1868 HC        1 <0>        0.04214
     19 H9          1.6938   -1.2109   -0.6653 HC        1 <0>        0.04214
     20 H10         2.8409   -0.3548    0.3831 HC        1 <0>        0.04214
     21 H11         1.7725    2.4445    0.0246 HC        1 <0>        0.04214
     22 H12         2.2284    1.6591    1.5486 HC        1 <0>        0.04214
     23 H13         0.6188    2.3840    1.3711 HC        1 <0>        0.04214
     24 H14        -0.5325    1.7906   -2.3276 HO        1 <0>        0.41648
@<TRIPOS>BOND
     1    1    2 1
     2    1    5 1
     3    2    8 1
     4    3    8 1
     5    3    9 1
     6    4    5 1
     7    4    9 1
     8    4   10 1
     9    5    6 1
    10    5    7 1
    11    1   11 1
    12    1   12 1
    13    2   13 1
    14    2   14 1
    15    3   15 1
    16    3   16 1
    17    4   17 1
    18    6   18 1
    19    6   19 1
    20    6   20 1
    21    7   21 1
    22    7   22 1
    23    7   23 1
    24   10   24 1
@<TRIPOS>SUBSTRUCTURE
     1 <0>         1 GROUP 0 A     ****
