@<TRIPOS>MOLECULE
AlkEthOH_r466
   29    29     1     0     0
SMALL
USER_CHARGES

@<TRIPOS>ATOM
      1 C1          0.5808    0.6414    2.0356 CT        1 <0>       -0.10461
      2 C2          1.0446   -0.6912    1.4528 CT        1 <0>       -0.09928
      3 C3         -0.8167    1.0383    1.5947 CT        1 <0>        0.13712
      4 C4          1.0785   -0.7895   -0.0861 CT        1 <0>        0.17816
      5 C5         -1.0584    0.3383   -0.7118 CT        1 <0>        0.35972
      6 C6          1.6640   -2.1711   -0.4441 CT        1 <0>       -0.10472
      7 C7          1.9815    0.2691   -0.7288 CT        1 <0>       -0.10472
      8 C8         -2.5176   -0.1369   -0.6105 CT        1 <0>       -0.10950
      9 C9         -0.8864    0.9438   -2.1124 CT        1 <0>       -0.10950
     10 O1         -0.8198    1.3926    0.2208 OS        1 <0>       -0.44548
     11 O2         -0.2505   -0.8349   -0.6101 OS        1 <0>       -0.46103
     12 H1          0.5972    0.5636    3.1293 HC        1 <0>        0.05005
     13 H2          1.2944    1.4274    1.7633 HC        1 <0>        0.05005
     14 H3          2.0454   -0.8980    1.8539 HC        1 <0>        0.04672
     15 H4          0.3809   -1.4739    1.8448 HC        1 <0>        0.04672
     16 H5         -1.5506    0.2638    1.8341 H1        1 <0>        0.04931
     17 H6         -1.1109    1.9363    2.1489 H1        1 <0>        0.04931
     18 H7          1.7009   -2.2709   -1.5225 HC        1 <0>        0.04527
     19 H8          1.0304   -2.9433   -0.0240 HC        1 <0>        0.04527
     20 H9          2.6632   -2.2493   -0.0321 HC        1 <0>        0.04527
     21 H10         1.9667    0.1523   -1.8094 HC        1 <0>        0.04527
     22 H11         2.9991    0.1475   -0.3667 HC        1 <0>        0.04527
     23 H12         1.6215    1.2611   -0.4681 HC        1 <0>        0.04527
     24 H13        -2.6850   -0.5742    0.3685 HC        1 <0>        0.05001
     25 H14        -2.7069   -0.8792   -1.3790 HC        1 <0>        0.05001
     26 H15        -3.1809    0.7106   -0.7500 HC        1 <0>        0.05001
     27 H16         0.1343    1.2950   -2.2308 HC        1 <0>        0.05001
     28 H17        -1.5731    1.7765   -2.2322 HC        1 <0>        0.05001
     29 H18        -1.0993    0.1867   -2.8614 HC        1 <0>        0.05001
@<TRIPOS>BOND
     1    1    2 1
     2    1    3 1
     3    2    4 1
     4    3   10 1
     5    4    6 1
     6    4    7 1
     7    4   11 1
     8    5    8 1
     9    5    9 1
    10    5   10 1
    11    5   11 1
    12    1   12 1
    13    1   13 1
    14    2   14 1
    15    2   15 1
    16    3   16 1
    17    3   17 1
    18    6   18 1
    19    6   19 1
    20    6   20 1
    21    7   21 1
    22    7   22 1
    23    7   23 1
    24    8   24 1
    25    8   25 1
    26    8   26 1
    27    9   27 1
    28    9   28 1
    29    9   29 1
@<TRIPOS>SUBSTRUCTURE
     1 <0>         1 GROUP 0 A     ****
