@<TRIPOS>MOLECULE
AlkEthOH_c291
   30    29     1     0     0
SMALL
USER_CHARGES

@<TRIPOS>ATOM
      1 C1          1.1766    0.8225   -2.2509 CT        1 <0>       -0.09055
      2 C2         -0.4841    1.0766   -0.3987 CT        1 <0>       -0.09055
      3 C3         -0.3624    1.9880   -5.1411 CT        1 <0>       -0.10698
      4 C4         -2.6940    1.0749   -5.4273 CT        1 <0>       -0.10698
      5 C5         -2.7168    0.1117   -2.2705 CT        1 <0>       -0.10194
      6 C6         -0.8108   -1.5054   -2.1829 CT        1 <0>       -0.10194
      7 C7         -0.3101    0.9926   -1.9222 CT        1 <0>       -0.08548
      8 C8         -1.5267    1.2732   -4.4724 CT        1 <0>        0.13788
      9 C9         -1.2285   -0.0821   -2.5758 CT        1 <0>        0.16000
     10 O1         -1.0902    0.0111   -4.0012 OS        1 <0>       -0.42498
     11 H1          1.5421   -0.1423   -1.8815 HC        1 <0>        0.03671
     12 H2          1.7849    1.5975   -1.7761 HC        1 <0>        0.03671
     13 H3          1.3598    0.8518   -3.3294 HC        1 <0>        0.03671
     14 H4         -0.1917    0.1309    0.0713 HC        1 <0>        0.03671
     15 H5         -1.5240    1.2733   -0.1196 HC        1 <0>        0.03671
     16 H6          0.1430    1.8623    0.0339 HC        1 <0>        0.03671
     17 H7         -0.0061    1.4347   -6.0154 HC        1 <0>        0.04099
     18 H8         -0.6641    2.9912   -5.4608 HC        1 <0>        0.04099
     19 H9          0.4731    2.1184   -4.4445 HC        1 <0>        0.04099
     20 H10        -2.3933    0.4999   -6.3084 HC        1 <0>        0.04099
     21 H11        -3.0847    2.0433   -5.7579 HC        1 <0>        0.04099
     22 H12        -3.5220    0.5535   -4.9346 HC        1 <0>        0.04099
     23 H13        -3.0539    1.1183   -2.5379 HC        1 <0>        0.04332
     24 H14        -2.9492   -0.0692   -1.2170 HC        1 <0>        0.04332
     25 H15        -3.3251   -0.5742   -2.8724 HC        1 <0>        0.04332
     26 H16         0.2481   -1.6958   -2.3817 HC        1 <0>        0.04332
     27 H17        -1.4066   -2.2497   -2.7233 HC        1 <0>        0.04332
     28 H18        -0.9927   -1.6827   -1.1162 HC        1 <0>        0.04332
     29 H19        -0.6217    1.9714   -2.3134 HC        1 <0>        0.04622
     30 H20        -1.8594    1.8505   -3.6035 H1        1 <0>        0.03918
@<TRIPOS>BOND
     1    1    7 1
     2    2    7 1
     3    3    8 1
     4    4    8 1
     5    5    9 1
     6    6    9 1
     7    7    9 1
     8    8   10 1
     9    9   10 1
    10    1   11 1
    11    1   12 1
    12    1   13 1
    13    2   14 1
    14    2   15 1
    15    2   16 1
    16    3   17 1
    17    3   18 1
    18    3   19 1
    19    4   20 1
    20    4   21 1
    21    4   22 1
    22    5   23 1
    23    5   24 1
    24    5   25 1
    25    6   26 1
    26    6   27 1
    27    6   28 1
    28    7   29 1
    29    8   30 1
@<TRIPOS>SUBSTRUCTURE
     1 <0>         1 GROUP 0 A     ****
