@<TRIPOS>MOLECULE
AlkEthOH_c554
   19    18     1     0     0
SMALL
USER_CHARGES

@<TRIPOS>ATOM
      1 C1          3.1823    1.6100    3.2137 CT        1 <0>       -0.10853
      2 C2          1.8688    3.4878    2.1648 CT        1 <0>       -0.10853
      3 C3         -0.9618    0.2323    1.3854 CT        1 <0>       -0.12204
      4 C4          1.7985    2.1551    2.8946 CT        1 <0>        0.14442
      5 C5         -0.3094    1.2433    2.3162 CT        1 <0>        0.32923
      6 O1         -0.6448    0.9402    3.6669 OH        1 <0>       -0.62473
      7 O2          1.1003    1.2158    2.0878 OS        1 <0>       -0.45912
      8 H1          3.7763    1.4774    2.3044 HC        1 <0>        0.04230
      9 H2          3.7156    2.2929    3.8837 HC        1 <0>        0.04230
     10 H3          3.1170    0.6476    3.7332 HC        1 <0>        0.04230
     11 H4          2.4315    3.4000    1.2304 HC        1 <0>        0.04230
     12 H5          2.3520    4.2423    2.7948 HC        1 <0>        0.04230
     13 H6          0.8660    3.8650    1.9356 HC        1 <0>        0.04230
     14 H7         -0.5954   -0.7788    1.5892 HC        1 <0>        0.05319
     15 H8         -2.0483    0.2191    1.5275 HC        1 <0>        0.05319
     16 H9         -0.7698    0.4834    0.3376 HC        1 <0>        0.05319
     17 H10         1.2305    2.2762    3.8228 H1        1 <0>        0.05305
     18 H11        -0.6976    2.2420    2.0855 H2        1 <0>        0.07321
     19 H12        -1.6115    0.9820    3.7574 HO        1 <0>        0.40967
@<TRIPOS>BOND
     1    1    4 1
     2    2    4 1
     3    3    5 1
     4    4    7 1
     5    5    6 1
     6    5    7 1
     7    1    8 1
     8    1    9 1
     9    1   10 1
    10    2   11 1
    11    2   12 1
    12    2   13 1
    13    3   14 1
    14    3   15 1
    15    3   16 1
    16    4   17 1
    17    5   18 1
    18    6   19 1
@<TRIPOS>SUBSTRUCTURE
     1 <0>         1 GROUP 0 A     ****
