@<TRIPOS>MOLECULE
AlkEthOH_r31
   18    18     1     0     0
SMALL
USER_CHARGES

@<TRIPOS>ATOM
      1 C1          1.4958   -0.3061   -0.9696 CT        1 <0>       -0.10584
      2 C2          0.0421   -0.5332   -1.3876 CT        1 <0>       -0.12733
      3 C3          1.7500   -0.4351    0.5285 CT        1 <0>        0.13277
      4 C4         -0.1662    0.4295    1.6530 CT        1 <0>        0.33788
      5 C5         -0.9827    0.2683   -0.5828 CT        1 <0>        0.33612
      6 O1          1.1648    0.6711    1.2059 OS        1 <0>       -0.45623
      7 O2         -1.0363   -0.2403    0.7460 OS        1 <0>       -0.48826
      8 O3         -2.2674    0.1459   -1.1934 OH        1 <0>       -0.58852
      9 H1          2.1290   -1.0219   -1.5063 HC        1 <0>        0.05462
     10 H2          1.7925    0.6987   -1.2958 HC        1 <0>        0.05462
     11 H3         -0.0629   -0.3036   -2.4552 HC        1 <0>        0.05937
     12 H4         -0.1855   -1.6028   -1.2846 HC        1 <0>        0.05937
     13 H5          1.3989   -1.3918    0.9328 H1        1 <0>        0.05233
     14 H6          2.8291   -0.3804    0.7068 H1        1 <0>        0.05233
     15 H7         -0.1208   -0.1660    2.5710 H2        1 <0>        0.06202
     16 H8         -0.6112    1.3947    1.9168 H2        1 <0>        0.06202
     17 H9         -0.7244    1.3475   -0.5781 H2        1 <0>        0.09168
     18 H10        -2.1789    0.4987   -2.0917 HO        1 <0>        0.41105
@<TRIPOS>BOND
     1    1    2 1
     2    1    3 1
     3    2    5 1
     4    3    6 1
     5    4    6 1
     6    4    7 1
     7    5    7 1
     8    5    8 1
     9    1    9 1
    10    1   10 1
    11    2   11 1
    12    2   12 1
    13    3   13 1
    14    3   14 1
    15    4   15 1
    16    4   16 1
    17    5   17 1
    18    8   18 1
@<TRIPOS>SUBSTRUCTURE
     1 <0>         1 GROUP 0 A     ****
