@<TRIPOS>MOLECULE
AlkEthOH_c581
   25    24     1     0     0
SMALL
USER_CHARGES

@<TRIPOS>ATOM
      1 C1          3.1392   -3.6826    1.8985 CT        1 <0>       -0.10754
      2 C2          2.5123   -4.0219    4.3158 CT        1 <0>       -0.10754
      3 C3         -0.5521    0.0942    1.0158 CT        1 <0>       -0.12362
      4 C4          1.6683    0.5960    2.0745 CT        1 <0>       -0.12362
      5 C5          0.7921   -1.7855    2.0067 CT        1 <0>        0.13945
      6 C6          2.0530   -3.5288    2.9522 CT        1 <0>        0.13641
      7 C7          0.4298   -0.2995    2.1208 CT        1 <0>        0.15047
      8 O1         -0.2074   -0.0771    3.3815 OH        1 <0>       -0.58263
      9 O2          1.6860   -2.1600    3.0490 OS        1 <0>       -0.40609
     10 H1          4.0447   -3.1358    2.1788 HC        1 <0>        0.04274
     11 H2          3.3951   -4.7393    1.7665 HC        1 <0>        0.04274
     12 H3          2.7974   -3.3180    0.9235 HC        1 <0>        0.04274
     13 H4          3.4029   -3.4833    4.6538 HC        1 <0>        0.04274
     14 H5          2.7443   -5.0916    4.2760 HC        1 <0>        0.04274
     15 H6          1.7230   -3.8991    5.0657 HC        1 <0>        0.04274
     16 H7         -1.4437   -0.5426    1.0409 HC        1 <0>        0.04510
     17 H8         -0.8677    1.1383    1.1102 HC        1 <0>        0.04510
     18 H9         -0.1024   -0.0433    0.0258 HC        1 <0>        0.04510
     19 H10         2.3840    0.3285    2.8598 HC        1 <0>        0.04510
     20 H11         1.3973    1.6428    2.2552 HC        1 <0>        0.04510
     21 H12         2.1737    0.5330    1.1054 HC        1 <0>        0.04510
     22 H13        -0.1019   -2.4117    2.1000 H1        1 <0>        0.03363
     23 H14         1.2768   -1.9987    1.0480 H1        1 <0>        0.03363
     24 H15         1.1626   -4.0860    2.6430 H1        1 <0>        0.03383
     25 H16        -0.4226    0.8666    3.4141 HO        1 <0>        0.39658
@<TRIPOS>BOND
     1    1    6 1
     2    2    6 1
     3    3    7 1
     4    4    7 1
     5    5    7 1
     6    5    9 1
     7    6    9 1
     8    7    8 1
     9    1   10 1
    10    1   11 1
    11    1   12 1
    12    2   13 1
    13    2   14 1
    14    2   15 1
    15    3   16 1
    16    3   17 1
    17    3   18 1
    18    4   19 1
    19    4   20 1
    20    4   21 1
    21    5   22 1
    22    5   23 1
    23    6   24 1
    24    8   25 1
@<TRIPOS>SUBSTRUCTURE
     1 <0>         1 GROUP 0 A     ****
