@<TRIPOS>MOLECULE
AlkEthOH_r493
   26    26     1     0     0
SMALL
USER_CHARGES

@<TRIPOS>ATOM
      1 C1         -1.8551    0.8887   -0.0611 CT        1 <0>       -0.11206
      2 C2         -1.2776   -0.3049   -0.8231 CT        1 <0>       -0.06607
      3 C3         -1.7961    0.7762    1.4589 CT        1 <0>        0.13055
      4 C4          0.5689    0.4270    1.4925 CT        1 <0>        0.09964
      5 C5          1.0037   -0.5190    0.3742 CT        1 <0>        0.12105
      6 C6          0.2682   -0.3285   -0.9835 CT        1 <0>       -0.04047
      7 C7          0.7636    0.9393   -1.7162 CT        1 <0>       -0.08672
      8 C8          0.6188   -1.5328   -1.8938 CT        1 <0>       -0.08672
      9 O1         -0.7062    0.0301    1.9734 OS        1 <0>       -0.41388
     10 O2          2.4116   -0.3761    0.1785 OH        1 <0>       -0.59863
     11 H1         -1.3662    1.8169   -0.3732 HC        1 <0>        0.04681
     12 H2         -2.9076    1.0181   -0.3445 HC        1 <0>        0.04681
     13 H3         -1.6208   -1.2379   -0.3568 HC        1 <0>        0.04755
     14 H4         -1.7255   -0.2901   -1.8265 HC        1 <0>        0.04755
     15 H5         -1.7971    1.7737    1.9135 H1        1 <0>        0.04375
     16 H6         -2.7042    0.2748    1.8121 H1        1 <0>        0.04375
     17 H7          1.2683    0.3293    2.3315 H1        1 <0>        0.04980
     18 H8          0.5986    1.4837    1.2028 H1        1 <0>        0.04980
     19 H9          0.8274   -1.5499    0.7179 H1        1 <0>        0.04557
     20 H10         1.8411    0.8913   -1.8111 HC        1 <0>        0.03895
     21 H11         0.4808    1.8109   -1.1394 HC        1 <0>        0.03895
     22 H12         0.3064    0.9791   -2.6968 HC        1 <0>        0.03895
     23 H13         1.6918   -1.5699   -2.0202 HC        1 <0>        0.03895
     24 H14         0.1334   -1.3961   -2.8500 HC        1 <0>        0.03895
     25 H15         0.2657   -2.4383   -1.4203 HC        1 <0>        0.03895
     26 H16         2.8290   -0.6091    1.0211 HO        1 <0>        0.39822
@<TRIPOS>BOND
     1    1    2 1
     2    1    3 1
     3    2    6 1
     4    3    9 1
     5    4    5 1
     6    4    9 1
     7    5    6 1
     8    5   10 1
     9    6    7 1
    10    6    8 1
    11    1   11 1
    12    1   12 1
    13    2   13 1
    14    2   14 1
    15    3   15 1
    16    3   16 1
    17    4   17 1
    18    4   18 1
    19    5   19 1
    20    7   20 1
    21    7   21 1
    22    7   22 1
    23    8   23 1
    24    8   24 1
    25    8   25 1
    26   10   26 1
@<TRIPOS>SUBSTRUCTURE
     1 <0>         1 GROUP 0 A     ****
