@<TRIPOS>MOLECULE
AlkEthOH_r730
   21    21     1     0     0
SMALL
USER_CHARGES

@<TRIPOS>ATOM
      1 C1         -1.9666   -0.8200   -0.0822 CT        1 <0>        0.09823
      2 C2         -1.0284   -0.5298   -1.2444 CT        1 <0>        0.10543
      3 C3         -0.6106    0.2858    1.5340 CT        1 <0>        0.32509
      4 C4          1.0445    0.1675   -0.2154 CT        1 <0>        0.34619
      5 C5          2.2103   -0.5114    0.5123 CT        1 <0>       -0.10713
      6 C6          1.6219    1.1129   -1.2750 CT        1 <0>       -0.10713
      7 O1         -1.8959    0.1830    0.9271 OS        1 <0>       -0.43080
      8 O2          0.3040   -0.8688   -0.8707 OS        1 <0>       -0.45795
      9 O3          0.3207    0.9809    0.7144 OS        1 <0>       -0.46393
     10 H1         -2.9998   -0.8281   -0.4436 H1        1 <0>        0.05674
     11 H2         -1.7571   -1.7968    0.3688 H1        1 <0>        0.05674
     12 H3         -1.2921   -1.1801   -2.0844 H1        1 <0>        0.06456
     13 H4         -1.1002    0.5091   -1.5809 H1        1 <0>        0.06456
     14 H5         -0.7446    0.8935    2.4340 H2        1 <0>        0.06651
     15 H6         -0.2448   -0.6942    1.8611 H2        1 <0>        0.06651
     16 H7          1.8219   -1.1875    1.2696 HC        1 <0>        0.05273
     17 H8          2.8317    0.2435    0.9869 HC        1 <0>        0.05273
     18 H9          2.8067   -1.0734   -0.2018 HC        1 <0>        0.05273
     19 H10         0.8101    1.6055   -1.8037 HC        1 <0>        0.05273
     20 H11         2.2205    0.5442   -1.9819 HC        1 <0>        0.05273
     21 H12         2.2458    1.8612   -0.7932 HC        1 <0>        0.05273
@<TRIPOS>BOND
     1    1    2 1
     2    1    7 1
     3    2    8 1
     4    3    7 1
     5    3    9 1
     6    4    5 1
     7    4    6 1
     8    4    8 1
     9    4    9 1
    10    1   10 1
    11    1   11 1
    12    2   12 1
    13    2   13 1
    14    3   14 1
    15    3   15 1
    16    5   16 1
    17    5   17 1
    18    5   18 1
    19    6   19 1
    20    6   20 1
    21    6   21 1
@<TRIPOS>SUBSTRUCTURE
     1 <0>         1 GROUP 0 A     ****
