@<TRIPOS>MOLECULE
AlkEthOH_c430
   28    27     1     0     0
SMALL
USER_CHARGES

@<TRIPOS>ATOM
      1 C1         -1.0433    0.2797   -0.2505 CT        1 <0>       -0.09122
      2 C2         -2.7747    0.8787   -1.9554 CT        1 <0>       -0.09122
      3 C3          1.5242   -0.0271   -2.9022 CT        1 <0>       -0.12103
      4 C4          3.6904    3.7542   -3.2180 CT        1 <0>       -0.12631
      5 C5         -0.3932    1.5685   -2.3523 CT        1 <0>       -0.07573
      6 C6         -1.3085    0.4923   -1.7411 CT        1 <0>       -0.06535
      7 C7          1.1132    1.2947   -2.2678 CT        1 <0>        0.14557
      8 C8          3.0556    2.6439   -2.3945 CT        1 <0>        0.33698
      9 O1          2.9698    3.0452   -1.0305 OH        1 <0>       -0.63094
     10 O2          1.7784    2.3548   -2.9577 OS        1 <0>       -0.42220
     11 H1         -1.1958    1.2047    0.3157 HC        1 <0>        0.03414
     12 H2         -0.0200   -0.0647   -0.0734 HC        1 <0>        0.03414
     13 H3         -1.7163   -0.4817    0.1588 HC        1 <0>        0.03414
     14 H4         -3.0042    1.8269   -1.4577 HC        1 <0>        0.03414
     15 H5         -2.9926    1.0015   -3.0217 HC        1 <0>        0.03414
     16 H6         -3.4505    0.1139   -1.5574 HC        1 <0>        0.03414
     17 H7          1.1957   -0.0787   -3.9459 HC        1 <0>        0.04015
     18 H8          2.6154   -0.1234   -2.9127 HC        1 <0>        0.04015
     19 H9          1.1137   -0.8837   -2.3607 HC        1 <0>        0.04015
     20 H10         3.0787    4.6615   -3.1869 HC        1 <0>        0.05302
     21 H11         4.6783    4.0146   -2.8217 HC        1 <0>        0.05302
     22 H12         3.8247    3.4427   -4.2585 HC        1 <0>        0.05302
     23 H13        -0.5949    2.5365   -1.8727 HC        1 <0>        0.05389
     24 H14        -0.6643    1.7160   -3.4070 HC        1 <0>        0.05389
     25 H15        -1.1426   -0.4591   -2.2600 HC        1 <0>        0.04472
     26 H16         1.4485    1.3303   -1.2263 H1        1 <0>        0.06469
     27 H17         3.6919    1.7530   -2.4473 H2        1 <0>        0.03011
     28 H18         3.8692    3.2239   -0.7085 HO        1 <0>        0.40980
@<TRIPOS>BOND
     1    1    6 1
     2    2    6 1
     3    3    7 1
     4    4    8 1
     5    5    6 1
     6    5    7 1
     7    7   10 1
     8    8    9 1
     9    8   10 1
    10    1   11 1
    11    1   12 1
    12    1   13 1
    13    2   14 1
    14    2   15 1
    15    2   16 1
    16    3   17 1
    17    3   18 1
    18    3   19 1
    19    4   20 1
    20    4   21 1
    21    4   22 1
    22    5   23 1
    23    5   24 1
    24    6   25 1
    25    7   26 1
    26    8   27 1
    27    9   28 1
@<TRIPOS>SUBSTRUCTURE
     1 <0>         1 GROUP 0 A     ****
