@<TRIPOS>MOLECULE
AlkEthOH_c928
   24    23     1     0     0
SMALL
USER_CHARGES

@<TRIPOS>ATOM
      1 C1          0.1548   -0.4867    0.9378 CT        1 <0>       -0.09226
      2 C2          4.0198   -1.0935    1.0210 CT        1 <0>       -0.08875
      3 C3          2.6363   -0.4318   -0.9415 CT        1 <0>       -0.08875
      4 C4          1.6134   -0.4962    1.3791 CT        1 <0>       -0.07177
      5 C5          2.2486   -2.6669    0.1187 CT        1 <0>       -0.07524
      6 C6          2.1796   -3.5826    1.3389 CT        1 <0>        0.13185
      7 C7          2.6075   -1.1851    0.4053 CT        1 <0>       -0.04832
      8 O1          1.8103   -4.8948    0.9276 OH        1 <0>       -0.60332
      9 H1          0.0703   -0.0156   -0.0473 HC        1 <0>        0.03483
     10 H2         -0.2486   -1.4994    0.8519 HC        1 <0>        0.03483
     11 H3         -0.4739    0.0828    1.6279 HC        1 <0>        0.03483
     12 H4          4.0666   -1.6122    1.9853 HC        1 <0>        0.03486
     13 H5          4.3252   -0.0545    1.1835 HC        1 <0>        0.03486
     14 H6          4.7666   -1.5518    0.3620 HC        1 <0>        0.03486
     15 H7          1.6618   -0.4542   -1.4401 HC        1 <0>        0.03486
     16 H8          2.9189    0.6179   -0.8031 HC        1 <0>        0.03486
     17 H9          3.3624   -0.8818   -1.6287 HC        1 <0>        0.03486
     18 H10         1.6702   -0.9721    2.3660 HC        1 <0>        0.03636
     19 H11         1.9260    0.5450    1.5346 HC        1 <0>        0.03636
     20 H12         2.9799   -3.0879   -0.5857 HC        1 <0>        0.05462
     21 H13         1.2914   -2.7271   -0.4158 HC        1 <0>        0.05462
     22 H14         1.4261   -3.2423    2.0538 H1        1 <0>        0.02161
     23 H15         3.1414   -3.6504    1.8546 H1        1 <0>        0.02161
     24 H16         1.7791   -5.4388    1.7303 HO        1 <0>        0.39773
@<TRIPOS>BOND
     1    1    4 1
     2    2    7 1
     3    3    7 1
     4    4    7 1
     5    5    6 1
     6    5    7 1
     7    6    8 1
     8    1    9 1
     9    1   10 1
    10    1   11 1
    11    2   12 1
    12    2   13 1
    13    2   14 1
    14    3   15 1
    15    3   16 1
    16    3   17 1
    17    4   18 1
    18    4   19 1
    19    5   20 1
    20    5   21 1
    21    6   22 1
    22    6   23 1
    23    8   24 1
@<TRIPOS>SUBSTRUCTURE
     1 <0>         1 GROUP 0 A     ****
