@<TRIPOS>MOLECULE
AlkEthOH_c781
   23    22     1     0     0
SMALL
USER_CHARGES

@<TRIPOS>ATOM
      1 C1          2.4298   -2.6443   -2.8221 CT        1 <0>       -0.13109
      2 C2         -1.3775   -0.0953   -0.0133 CT        1 <0>       -0.12944
      3 C3          0.1583    1.6874    0.8213 CT        1 <0>       -0.12944
      4 C4          1.0255   -1.1748   -1.3393 CT        1 <0>        0.14269
      5 C5          2.3198   -1.2921   -2.1339 CT        1 <0>        0.13696
      6 C6          0.0686    0.2298    0.3677 CT        1 <0>        0.34458
      7 O1          2.3310   -0.2671   -3.1263 OH        1 <0>       -0.58875
      8 O2          0.4769   -0.5633    1.4826 OH        1 <0>       -0.62830
      9 O3          0.9647    0.1133   -0.7445 OS        1 <0>       -0.40098
     10 H1          1.5680   -2.8125   -3.4770 HC        1 <0>        0.04342
     11 H2          3.3411   -2.7110   -3.4242 HC        1 <0>        0.04342
     12 H3          2.4313   -3.4586   -2.0893 HC        1 <0>        0.04342
     13 H4         -1.4736   -1.1355   -0.3433 HC        1 <0>        0.05194
     14 H5         -2.0589    0.0809    0.8253 HC        1 <0>        0.05194
     15 H6         -1.7168    0.5244   -0.8503 HC        1 <0>        0.05194
     16 H7          1.1890    1.9392    1.0988 HC        1 <0>        0.05194
     17 H8         -0.4662    1.8727    1.7019 HC        1 <0>        0.05194
     18 H9         -0.1369    2.3740    0.0205 HC        1 <0>        0.05194
     19 H10         0.1505   -1.2870   -1.9880 H1        1 <0>        0.04521
     20 H11         0.9853   -1.9205   -0.5391 H1        1 <0>        0.04521
     21 H12         3.1818   -1.1238   -1.4789 H1        1 <0>        0.04628
     22 H13         3.1724   -0.3525   -3.5999 HO        1 <0>        0.39548
     23 H14        -0.1114   -0.3637    2.2300 HO        1 <0>        0.40969
@<TRIPOS>BOND
     1    1    5 1
     2    2    6 1
     3    3    6 1
     4    4    5 1
     5    4    9 1
     6    5    7 1
     7    6    8 1
     8    6    9 1
     9    1   10 1
    10    1   11 1
    11    1   12 1
    12    2   13 1
    13    2   14 1
    14    2   15 1
    15    3   16 1
    16    3   17 1
    17    3   18 1
    18    4   19 1
    19    4   20 1
    20    5   21 1
    21    7   22 1
    22    8   23 1
@<TRIPOS>SUBSTRUCTURE
     1 <0>         1 GROUP 0 A     ****
