@<TRIPOS>MOLECULE
AlkEthOH_r1010
   23    23     1     0     0
SMALL
USER_CHARGES

@<TRIPOS>ATOM
      1 C1          0.3666   -0.3397   -1.6415 CT        1 <0>       -0.14295
      2 C2          0.5453   -1.7309   -1.0318 CT        1 <0>        0.12914
      3 C3         -0.7857   -1.1837    0.8828 CT        1 <0>        0.09740
      4 C4          0.7670    0.8073   -0.7118 CT        1 <0>        0.14637
      5 C5         -0.4411    0.2449    1.3004 CT        1 <0>        0.11324
      6 C6          1.0230    2.0752   -1.5221 CT        1 <0>       -0.09416
      7 C7         -1.5479    0.8263    2.1725 CT        1 <0>       -0.09210
      8 O1          0.3859   -1.8135    0.3770 OS        1 <0>       -0.42022
      9 O2         -0.3131    1.1141    0.1745 OS        1 <0>       -0.42383
     10 H1          0.9376   -0.3095   -2.5775 HC        1 <0>        0.05688
     11 H2         -0.6893   -0.2199   -1.9178 HC        1 <0>        0.05688
     12 H3         -0.1376   -2.4423   -1.5107 H1        1 <0>        0.04450
     13 H4          1.5606   -2.0832   -1.2460 H1        1 <0>        0.04450
     14 H5         -1.0894   -1.7615    1.7623 H1        1 <0>        0.05592
     15 H6         -1.6030   -1.2256    0.1533 H1        1 <0>        0.05592
     16 H7          1.6750    0.5714   -0.1433 H1        1 <0>        0.05076
     17 H8          0.5018    0.2653    1.8609 H1        1 <0>        0.05064
     18 H9          0.1347    2.3324   -2.0974 HC        1 <0>        0.04460
     19 H10         1.8557    1.9157   -2.2056 HC        1 <0>        0.04460
     20 H11         1.2646    2.8997   -0.8527 HC        1 <0>        0.04460
     21 H12        -2.4935    0.8140    1.6308 HC        1 <0>        0.04577
     22 H13        -1.3076    1.8544    2.4423 HC        1 <0>        0.04577
     23 H14        -1.6531    0.2362    3.0826 HC        1 <0>        0.04577
@<TRIPOS>BOND
     1    1    2 1
     2    1    4 1
     3    2    8 1
     4    3    5 1
     5    3    8 1
     6    4    6 1
     7    4    9 1
     8    5    7 1
     9    5    9 1
    10    1   10 1
    11    1   11 1
    12    2   12 1
    13    2   13 1
    14    3   14 1
    15    3   15 1
    16    4   16 1
    17    5   17 1
    18    6   18 1
    19    6   19 1
    20    6   20 1
    21    7   21 1
    22    7   22 1
    23    7   23 1
@<TRIPOS>SUBSTRUCTURE
     1 <0>         1 GROUP 0 A     ****
