@<TRIPOS>MOLECULE
AlkEthOH_r461
   31    31     1     0     0
SMALL
USER_CHARGES

@<TRIPOS>ATOM
      1 C1         -1.9314   -0.8393   -0.6515 CT        1 <0>       -0.10493
      2 C2         -1.1577    0.0659   -1.6076 CT        1 <0>       -0.06701
      3 C3          0.6499    0.9460   -0.0166 CT        1 <0>       -0.08946
      4 C4         -1.8128   -0.4293    0.8064 CT        1 <0>        0.13404
      5 C5          0.3651    0.2191   -1.3612 CT        1 <0>       -0.03864
      6 C6          0.4760    0.1913    1.3259 CT        1 <0>        0.15899
      7 C7          1.0809   -1.1331   -1.4882 CT        1 <0>       -0.09065
      8 C8          0.9097    1.1309   -2.4913 CT        1 <0>       -0.09065
      9 C9          1.7731   -0.5430    1.7138 CT        1 <0>       -0.10478
     10 C10         0.1893    1.1994    2.4577 CT        1 <0>       -0.10478
     11 O1         -0.5422   -0.8078    1.3125 OS        1 <0>       -0.41743
     12 H1         -2.9892   -0.8087   -0.9397 HC        1 <0>        0.04936
     13 H2         -1.5985   -1.8759   -0.7770 HC        1 <0>        0.04936
     14 H3         -1.3192   -0.3173   -2.6246 HC        1 <0>        0.03656
     15 H4         -1.6256    1.0601   -1.5901 HC        1 <0>        0.03656
     16 H5          1.6679    1.3611   -0.0394 HC        1 <0>        0.04281
     17 H6         -0.0008    1.8329    0.0035 HC        1 <0>        0.04281
     18 H7         -2.0328    0.6327    0.9515 H1        1 <0>        0.04273
     19 H8         -2.5551   -0.9912    1.3836 H1        1 <0>        0.04273
     20 H9          2.1439   -0.9971   -1.3112 HC        1 <0>        0.03647
     21 H10         0.9274   -1.5306   -2.4871 HC        1 <0>        0.03647
     22 H11         0.6768   -1.8258   -0.7557 HC        1 <0>        0.03647
     23 H12         1.9737    1.2592   -2.3493 HC        1 <0>        0.03647
     24 H13         0.4066    2.0862   -2.4372 HC        1 <0>        0.03647
     25 H14         0.7130    0.6569   -3.4428 HC        1 <0>        0.03647
     26 H15         1.6216   -1.0606    2.6547 HC        1 <0>        0.04226
     27 H16         2.5743    0.1803    1.8182 HC        1 <0>        0.04226
     28 H17         2.0232   -1.2582    0.9378 HC        1 <0>        0.04226
     29 H18         0.0698    0.6602    3.3900 HC        1 <0>        0.04226
     30 H19        -0.7200    1.7417    2.2265 HC        1 <0>        0.04226
     31 H20         1.0209    1.8901    2.5353 HC        1 <0>        0.04226
@<TRIPOS>BOND
     1    1    2 1
     2    1    4 1
     3    2    5 1
     4    3    5 1
     5    3    6 1
     6    4   11 1
     7    5    7 1
     8    5    8 1
     9    6    9 1
    10    6   10 1
    11    6   11 1
    12    1   12 1
    13    1   13 1
    14    2   14 1
    15    2   15 1
    16    3   16 1
    17    3   17 1
    18    4   18 1
    19    4   19 1
    20    7   20 1
    21    7   21 1
    22    7   22 1
    23    8   23 1
    24    8   24 1
    25    8   25 1
    26    9   26 1
    27    9   27 1
    28    9   28 1
    29   10   29 1
    30   10   30 1
    31   10   31 1
@<TRIPOS>SUBSTRUCTURE
     1 <0>         1 GROUP 0 A     ****
