@<TRIPOS>MOLECULE
AlkEthOH_c712
   25    24     1     0     0
SMALL
USER_CHARGES

@<TRIPOS>ATOM
      1 C1         -0.0296    2.4912    0.1416 CT        1 <0>       -0.13091
      2 C2          1.6725    2.7448   -7.2636 CT        1 <0>       -0.13091
      3 C3          0.4080    1.7951   -3.7077 CT        1 <0>       -0.07400
      4 C4          0.4741    2.5310   -2.3637 CT        1 <0>       -0.07098
      5 C5          1.0296    2.6374   -4.8290 CT        1 <0>       -0.07098
      6 C6         -0.1165    1.7484   -1.1850 CT        1 <0>        0.13970
      7 C7          1.0147    1.9072   -6.1753 CT        1 <0>        0.13970
      8 O1          0.5540    0.4966   -1.0697 OH        1 <0>       -0.59791
      9 O2          1.7243    0.6783   -6.0491 OH        1 <0>       -0.59791
     10 H1          1.0075    2.7231    0.4017 HC        1 <0>        0.04206
     11 H2         -0.5889    3.4316    0.0838 HC        1 <0>        0.04206
     12 H3         -0.4835    1.9167    0.9554 HC        1 <0>        0.04206
     13 H4          2.7057    2.9852   -6.9904 HC        1 <0>        0.04206
     14 H5          1.6810    2.2167   -8.2219 HC        1 <0>        0.04206
     15 H6          1.1513    3.6998   -7.3922 HC        1 <0>        0.04206
     16 H7         -0.6350    1.5703   -3.9598 HC        1 <0>        0.05726
     17 H8          0.9391    0.8400   -3.6332 HC        1 <0>        0.05726
     18 H9         -0.0815    3.4726   -2.4623 HC        1 <0>        0.04454
     19 H10         1.5155    2.7926   -2.1403 HC        1 <0>        0.04454
     20 H11         0.4832    3.5840   -4.9192 HC        1 <0>        0.04454
     21 H12         2.0643    2.8772   -4.5527 HC        1 <0>        0.04454
     22 H13        -1.1690    1.5366   -1.4064 H1        1 <0>        0.02860
     23 H14        -0.0169    1.6751   -6.4626 H1        1 <0>        0.02860
     24 H15         0.1024    0.0046   -0.3664 HO        1 <0>        0.39598
     25 H16         1.6702    0.2377   -6.9115 HO        1 <0>        0.39598
@<TRIPOS>BOND
     1    1    6 1
     2    2    7 1
     3    3    4 1
     4    3    5 1
     5    4    6 1
     6    5    7 1
     7    6    8 1
     8    7    9 1
     9    1   10 1
    10    1   11 1
    11    1   12 1
    12    2   13 1
    13    2   14 1
    14    2   15 1
    15    3   16 1
    16    3   17 1
    17    4   18 1
    18    4   19 1
    19    5   20 1
    20    5   21 1
    21    6   22 1
    22    7   23 1
    23    8   24 1
    24    9   25 1
@<TRIPOS>SUBSTRUCTURE
     1 <0>         1 GROUP 0 A     ****
