@<TRIPOS>MOLECULE
AlkEthOH_r59
   28    28     1     0     0
SMALL
USER_CHARGES

@<TRIPOS>ATOM
      1 C1         -0.2274    0.4389    2.0901 CT        1 <0>       -0.07432
      2 C2         -0.7165   -0.9835    1.8033 CT        1 <0>       -0.07432
      3 C3          1.2783    0.6438    1.8822 CT        1 <0>       -0.07458
      4 C4         -1.8700   -1.0648    0.7954 CT        1 <0>       -0.07458
      5 C5          1.8323    0.2912    0.4963 CT        1 <0>       -0.06967
      6 C6         -1.6253   -0.4236   -0.5763 CT        1 <0>       -0.06967
      7 C7          1.1535    1.0277   -0.6604 CT        1 <0>       -0.08656
      8 C8         -0.3943   -0.9649   -1.3145 CT        1 <0>       -0.08656
      9 C9          0.6052    0.1113   -1.7649 CT        1 <0>        0.14471
     10 O1         -0.0359    0.9239   -2.7511 OH        1 <0>       -0.60349
     11 H1         -0.7901    1.1839    1.5204 HC        1 <0>        0.03821
     12 H2         -0.4448    0.6682    3.1420 HC        1 <0>        0.03821
     13 H3          0.1025   -1.6380    1.4914 HC        1 <0>        0.03821
     14 H4         -1.0773   -1.4161    2.7460 HC        1 <0>        0.03821
     15 H5          1.5136    1.6937    2.0986 HC        1 <0>        0.03569
     16 H6          1.8211    0.0505    2.6289 HC        1 <0>        0.03569
     17 H7         -2.1241   -2.1225    0.6501 HC        1 <0>        0.03569
     18 H8         -2.7579   -0.5964    1.2384 HC        1 <0>        0.03569
     19 H9          2.8971    0.5603    0.4929 HC        1 <0>        0.04186
     20 H10         1.8185   -0.7928    0.3501 HC        1 <0>        0.04186
     21 H11        -2.5107   -0.6257   -1.1938 HC        1 <0>        0.04186
     22 H12        -1.5947    0.6655   -0.4791 HC        1 <0>        0.04186
     23 H13         0.3756    1.7146   -0.3107 HC        1 <0>        0.04679
     24 H14         1.8930    1.6950   -1.1255 HC        1 <0>        0.04679
     25 H15         0.1193   -1.7327   -0.7291 HC        1 <0>        0.04679
     26 H16        -0.7573   -1.4822   -2.2131 HC        1 <0>        0.04679
     27 H17         1.4460   -0.3888   -2.2615 H1        1 <0>        0.02302
     28 H18         0.6435    1.5237   -3.0927 HO        1 <0>        0.39582
@<TRIPOS>BOND
     1    1    2 1
     2    1    3 1
     3    2    4 1
     4    3    5 1
     5    4    6 1
     6    5    7 1
     7    6    8 1
     8    7    9 1
     9    8    9 1
    10    9   10 1
    11    1   11 1
    12    1   12 1
    13    2   13 1
    14    2   14 1
    15    3   15 1
    16    3   16 1
    17    4   17 1
    18    4   18 1
    19    5   19 1
    20    5   20 1
    21    6   21 1
    22    6   22 1
    23    7   23 1
    24    7   24 1
    25    8   25 1
    26    8   26 1
    27    9   27 1
    28   10   28 1
@<TRIPOS>SUBSTRUCTURE
     1 <0>         1 GROUP 0 A     ****
