@<TRIPOS>MOLECULE
AlkEthOH_r469
   24    24     1     0     0
SMALL
USER_CHARGES

@<TRIPOS>ATOM
      1 C1          0.3682    1.2469   -1.5774 CT        1 <0>       -0.10688
      2 C2          1.2503    0.0585   -1.1916 CT        1 <0>       -0.09764
      3 C3         -0.3080    1.9215   -0.3929 CT        1 <0>        0.13914
      4 C4         -0.9557    0.1942    1.1262 CT        1 <0>        0.53039
      5 C5          0.5946   -1.0391   -0.3276 CT        1 <0>        0.18130
      6 C6         -0.5867   -1.7298   -1.0231 CT        1 <0>       -0.11076
      7 C7          1.6632   -2.1123   -0.0445 CT        1 <0>       -0.11076
      8 O1         -1.3519    1.0868    0.0864 OS        1 <0>       -0.44251
      9 O2          0.2780   -0.5012    0.9599 OS        1 <0>       -0.49560
     10 O3         -0.9521    0.8743    2.3847 OH        1 <0>       -0.62036
     11 H1          0.9928    1.9831   -2.0973 HC        1 <0>        0.05198
     12 H2         -0.3919    0.9099   -2.2921 HC        1 <0>        0.05198
     13 H3          1.6449   -0.3855   -2.1147 HC        1 <0>        0.04907
     14 H4          2.1136    0.4639   -0.6458 HC        1 <0>        0.04907
     15 H5          0.4010    2.1885    0.3993 H1        1 <0>        0.05970
     16 H6         -0.7776    2.8484   -0.7389 H1        1 <0>        0.05970
     17 H7         -1.7450   -0.5629    1.1911 H3        1 <0>        0.09096
     18 H8         -1.0009   -2.4877   -0.3645 HC        1 <0>        0.04842
     19 H9         -0.2426   -2.1964   -1.9416 HC        1 <0>        0.04842
     20 H10        -1.3507   -0.9932   -1.2544 HC        1 <0>        0.04842
     21 H11         1.2267   -2.8974    0.5628 HC        1 <0>        0.04842
     22 H12         2.4928   -1.6571    0.4848 HC        1 <0>        0.04842
     23 H13         2.0101   -2.5256   -0.9851 HC        1 <0>        0.04842
     24 H14        -0.6772    0.2214    3.0447 HO        1 <0>        0.43070
@<TRIPOS>BOND
     1    1    2 1
     2    1    3 1
     3    2    5 1
     4    3    8 1
     5    4    8 1
     6    4    9 1
     7    4   10 1
     8    5    6 1
     9    5    7 1
    10    5    9 1
    11    1   11 1
    12    1   12 1
    13    2   13 1
    14    2   14 1
    15    3   15 1
    16    3   16 1
    17    4   17 1
    18    6   18 1
    19    6   19 1
    20    6   20 1
    21    7   21 1
    22    7   22 1
    23    7   23 1
    24   10   24 1
@<TRIPOS>SUBSTRUCTURE
     1 <0>         1 GROUP 0 A     ****
