@<TRIPOS>MOLECULE
AlkEthOH_c573
   29    28     1     0     0
SMALL
USER_CHARGES

@<TRIPOS>ATOM
      1 C1          2.1022    1.3507    6.5738 CT        1 <0>       -0.10779
      2 C2          1.6661    3.4631    5.2702 CT        1 <0>       -0.10779
      3 C3         -2.2512   -1.0206    4.2488 CT        1 <0>       -0.10898
      4 C4         -0.7354   -2.7432    3.2269 CT        1 <0>       -0.10898
      5 C5         -0.1081   -1.6591    5.4040 CT        1 <0>       -0.10898
      6 C6          1.2035    2.0434    5.5608 CT        1 <0>        0.14819
      7 C7         -0.1062    0.8156    4.0100 CT        1 <0>        0.50852
      8 C8         -0.8012   -1.4626    4.0564 CT        1 <0>        0.16004
      9 O1         -0.8296    1.8120    3.2845 OH        1 <0>       -0.62773
     10 O2          1.1985    1.2960    4.3515 OS        1 <0>       -0.45447
     11 O3         -0.1082   -0.4451    3.3327 OS        1 <0>       -0.42818
     12 H1          3.1389    1.3140    6.2253 HC        1 <0>        0.04509
     13 H2          2.0737    1.8792    7.5327 HC        1 <0>        0.04509
     14 H3          1.7616    0.3277    6.7688 HC        1 <0>        0.04509
     15 H4          2.6923    3.4767    4.8907 HC        1 <0>        0.04509
     16 H5          1.6209    4.0722    6.1794 HC        1 <0>        0.04509
     17 H6          1.0141    3.9471    4.5347 HC        1 <0>        0.04509
     18 H7         -2.3027   -0.1017    4.8438 HC        1 <0>        0.04552
     19 H8         -2.7492   -0.8425    3.2902 HC        1 <0>        0.04552
     20 H9         -2.8210   -1.7777    4.7995 HC        1 <0>        0.04552
     21 H10         0.3031   -3.0640    3.0864 HC        1 <0>        0.04552
     22 H11        -1.1465   -2.5802    2.2241 HC        1 <0>        0.04552
     23 H12        -1.2896   -3.5601    3.7002 HC        1 <0>        0.04552
     24 H13         0.9319   -1.9762    5.2662 HC        1 <0>        0.04552
     25 H14        -0.1133   -0.7395    5.9980 HC        1 <0>        0.04552
     26 H15        -0.5985   -2.4502    5.9827 HC        1 <0>        0.04552
     27 H16         0.1758    2.0639    5.9379 H1        1 <0>        0.03695
     28 H17        -0.6611    0.6538    4.9421 H3        1 <0>        0.08854
     29 H18        -0.9035    2.5957    3.8549 HO        1 <0>        0.43044
@<TRIPOS>BOND
     1    1    6 1
     2    2    6 1
     3    3    8 1
     4    4    8 1
     5    5    8 1
     6    6   10 1
     7    7    9 1
     8    7   10 1
     9    7   11 1
    10    8   11 1
    11    1   12 1
    12    1   13 1
    13    1   14 1
    14    2   15 1
    15    2   16 1
    16    2   17 1
    17    3   18 1
    18    3   19 1
    19    3   20 1
    20    4   21 1
    21    4   22 1
    22    4   23 1
    23    5   24 1
    24    5   25 1
    25    5   26 1
    26    6   27 1
    27    7   28 1
    28    9   29 1
@<TRIPOS>SUBSTRUCTURE
     1 <0>         1 GROUP 0 A     ****
