@<TRIPOS>MOLECULE
AlkEthOH_r862
   19    19     1     0     0
SMALL
USER_CHARGES

@<TRIPOS>ATOM
      1 C1          0.4907   -0.9743    0.0951 CT        1 <0>       -0.07551
      2 C2          1.3882   -1.0096    1.3316 CT        1 <0>       -0.08035
      3 C3         -0.5280   -2.1000    0.2708 CT        1 <0>       -0.11783
      4 C4          1.1579   -2.3897    1.9421 CT        1 <0>       -0.06621
      5 C5         -0.3330   -2.6103    1.6940 CT        1 <0>        0.13748
      6 C6          1.5461   -2.4600    3.4111 CT        1 <0>       -0.08513
      7 O1         -0.6933   -3.9756    1.7839 OH        1 <0>       -0.59474
      8 H1          0.0001    0.0001   -0.0002 HC        1 <0>        0.04241
      9 H2          1.0769   -1.1364   -0.8162 HC        1 <0>        0.04241
     10 H3          2.4394   -0.8402    1.0781 HC        1 <0>        0.04406
     11 H4          1.0829   -0.2184    2.0276 HC        1 <0>        0.04406
     12 H5         -1.5532   -1.7517    0.1074 HC        1 <0>        0.04805
     13 H6         -0.3462   -2.8964   -0.4614 HC        1 <0>        0.04805
     14 H7          1.7405   -3.1435    1.3955 HC        1 <0>        0.06889
     15 H8         -0.9504   -2.0321    2.3919 H1        1 <0>        0.03586
     16 H9          0.9835   -1.7214    3.9838 HC        1 <0>        0.03689
     17 H10         2.6118   -2.2580    3.5278 HC        1 <0>        0.03689
     18 H11         1.3304   -3.4525    3.8092 HC        1 <0>        0.03689
     19 H12        -1.6298   -4.0421    1.5293 HO        1 <0>        0.39783
@<TRIPOS>BOND
     1    1    2 1
     2    1    3 1
     3    2    4 1
     4    3    5 1
     5    4    5 1
     6    4    6 1
     7    5    7 1
     8    1    8 1
     9    1    9 1
    10    2   10 1
    11    2   11 1
    12    3   12 1
    13    3   13 1
    14    4   14 1
    15    5   15 1
    16    6   16 1
    17    6   17 1
    18    6   18 1
    19    7   19 1
@<TRIPOS>SUBSTRUCTURE
     1 <0>         1 GROUP 0 A     ****
