@<TRIPOS>MOLECULE
AlkEthOH_r883
   26    26     1     0     0
SMALL
USER_CHARGES

@<TRIPOS>ATOM
      1 C1          0.1032    1.9909    0.1958 CT        1 <0>       -0.07759
      2 C2          1.5426    1.4674    0.2519 CT        1 <0>       -0.06690
      3 C3         -0.6495    1.6877   -1.1040 CT        1 <0>       -0.06747
      4 C4          1.7812    0.0105   -0.1556 CT        1 <0>       -0.10725
      5 C5         -1.6475    0.5275   -1.0067 CT        1 <0>       -0.12053
      6 C6          0.9755   -1.0557    0.6033 CT        1 <0>        0.14844
      7 C7         -1.0291   -0.8380   -0.7022 CT        1 <0>        0.33308
      8 C8          1.3953   -1.1388    2.0679 CT        1 <0>       -0.09073
      9 O1         -0.4284   -0.8084    0.5882 OS        1 <0>       -0.40508
     10 O2         -2.0431   -1.8431   -0.7385 OH        1 <0>       -0.60471
     11 H1         -0.4640    1.6460    1.0678 HC        1 <0>        0.04889
     12 H2          0.1613    3.0821    0.3064 HC        1 <0>        0.04889
     13 H3          2.1581    2.0962   -0.4051 HC        1 <0>        0.03631
     14 H4          1.9317    1.6314    1.2641 HC        1 <0>        0.03631
     15 H5         -1.2302    2.5812   -1.3687 HC        1 <0>        0.03828
     16 H6          0.0445    1.5253   -1.9362 HC        1 <0>        0.03828
     17 H7          1.5863   -0.0806   -1.2299 HC        1 <0>        0.04212
     18 H8          2.8508   -0.2079   -0.0394 HC        1 <0>        0.04212
     19 H9         -2.3902    0.7662   -0.2336 HC        1 <0>        0.05314
     20 H10        -2.2089    0.4634   -1.9476 HC        1 <0>        0.05314
     21 H11         1.1605   -2.0356    0.1453 H1        1 <0>        0.03775
     22 H12        -0.2940   -1.1000   -1.4901 H2        1 <0>        0.03926
     23 H13         1.2254   -0.1805    2.5572 HC        1 <0>        0.04639
     24 H14         2.4529   -1.3903    2.1366 HC        1 <0>        0.04639
     25 H15         0.8135   -1.9061    2.5772 HC        1 <0>        0.04639
     26 H16        -2.4156   -1.8240   -1.6329 HO        1 <0>        0.40508
@<TRIPOS>BOND
     1    1    2 1
     2    1    3 1
     3    2    4 1
     4    3    5 1
     5    4    6 1
     6    5    7 1
     7    6    8 1
     8    6    9 1
     9    7    9 1
    10    7   10 1
    11    1   11 1
    12    1   12 1
    13    2   13 1
    14    2   14 1
    15    3   15 1
    16    3   16 1
    17    4   17 1
    18    4   18 1
    19    5   19 1
    20    5   20 1
    21    6   21 1
    22    7   22 1
    23    8   23 1
    24    8   24 1
    25    8   25 1
    26   10   26 1
@<TRIPOS>SUBSTRUCTURE
     1 <0>         1 GROUP 0 A     ****
