@<TRIPOS>MOLECULE
AlkEthOH_r137
   18    18     1     0     0
SMALL
USER_CHARGES

@<TRIPOS>ATOM
      1 C1          0.4548    1.8535   -0.1993 CT        1 <0>        0.09385
      2 C2          1.1921    1.1582    0.9331 CT        1 <0>        0.09385
      3 C3         -0.9094    0.1222   -1.0658 CT        1 <0>        0.11697
      4 C4          0.1104   -0.9536    1.0519 CT        1 <0>        0.11697
      5 C5         -0.8353   -1.0858   -0.1391 CT        1 <0>        0.08668
      6 O1         -0.8729    1.3576   -0.3609 OS        1 <0>       -0.40618
      7 O2          1.3046   -0.2476    0.7181 OS        1 <0>       -0.40618
      8 O3         -0.4444   -2.2043   -0.9379 OH        1 <0>       -0.59044
      9 H1          0.3754    2.9209    0.0314 H1        1 <0>        0.05547
     10 H2          1.0071    1.7676   -1.1424 H1        1 <0>        0.05547
     11 H3          2.2099    1.5580    0.9913 H1        1 <0>        0.05547
     12 H4          0.7126    1.3565    1.8987 H1        1 <0>        0.05547
     13 H5         -0.1382    0.0837   -1.8464 H1        1 <0>        0.05931
     14 H6         -1.8629    0.0840   -1.6062 H1        1 <0>        0.05931
     15 H7         -0.3984   -0.4699    1.8945 H1        1 <0>        0.05931
     16 H8          0.4194   -1.9468    1.3958 H1        1 <0>        0.05931
     17 H9         -1.8371   -1.3095    0.2456 H1        1 <0>        0.03837
     18 H10        -1.1283   -2.3070   -1.6162 HO        1 <0>        0.39699
@<TRIPOS>BOND
     1    1    2 1
     2    1    6 1
     3    2    7 1
     4    3    5 1
     5    3    6 1
     6    4    5 1
     7    4    7 1
     8    5    8 1
     9    1    9 1
    10    1   10 1
    11    2   11 1
    12    2   12 1
    13    3   13 1
    14    3   14 1
    15    4   15 1
    16    4   16 1
    17    5   17 1
    18    8   18 1
@<TRIPOS>SUBSTRUCTURE
     1 <0>         1 GROUP 0 A     ****
