@<TRIPOS>MOLECULE
AlkEthOH_r248
   20    20     1     0     0
SMALL
USER_CHARGES

@<TRIPOS>ATOM
      1 C1          0.4072    0.3891    0.9389 CT        1 <0>       -0.10011
      2 C2         -0.0786    1.1695    3.1094 CT        1 <0>        0.09571
      3 C3         -0.5420    1.3050    1.6760 CT        1 <0>        0.10945
      4 C4          0.6998   -0.7190    1.9580 CT        1 <0>        0.14963
      5 C5         -0.1862   -1.9491    1.7506 CT        1 <0>       -0.09960
      6 C6          2.1714   -1.1295    1.9369 CT        1 <0>       -0.09960
      7 O1          0.3992   -0.1761    3.2587 OS        1 <0>       -0.41982
      8 O2         -1.8728    0.8228    1.5424 OH        1 <0>       -0.59083
      9 H1          0.0001   -0.0000    0.0000 HC        1 <0>        0.06829
     10 H2          1.3249    0.9433    0.7057 HC        1 <0>        0.06829
     11 H3          0.7626    1.8388    3.3180 H1        1 <0>        0.04925
     12 H4         -0.8701    1.3444    3.8434 H1        1 <0>        0.04925
     13 H5         -0.5156    2.3357    1.3116 H1        1 <0>        0.04502
     14 H6          0.0568   -2.7051    2.4940 HC        1 <0>        0.04555
     15 H7         -0.0194   -2.3571    0.7561 HC        1 <0>        0.04555
     16 H8         -1.2323   -1.6684    1.8528 HC        1 <0>        0.04555
     17 H9          2.3452   -1.9155    2.6697 HC        1 <0>        0.04555
     18 H10         2.7967   -0.2717    2.1781 HC        1 <0>        0.04555
     19 H11         2.4369   -1.4983    0.9477 HC        1 <0>        0.04555
     20 H12        -2.4437    1.4390    2.0289 HO        1 <0>        0.40177
@<TRIPOS>BOND
     1    1    3 1
     2    1    4 1
     3    2    3 1
     4    2    7 1
     5    3    8 1
     6    4    5 1
     7    4    6 1
     8    4    7 1
     9    1    9 1
    10    1   10 1
    11    2   11 1
    12    2   12 1
    13    3   13 1
    14    5   14 1
    15    5   15 1
    16    5   16 1
    17    6   17 1
    18    6   18 1
    19    6   19 1
    20    8   20 1
@<TRIPOS>SUBSTRUCTURE
     1 <0>         1 GROUP 0 A     ****
