@<TRIPOS>MOLECULE
AlkEthOH_c1192
   19    18     1     0     0
SMALL
USER_CHARGES

@<TRIPOS>ATOM
      1 C1          1.9664   -1.1249   -2.5256 CT        1 <0>       -0.09691
      2 C2         -1.3870   -0.0280   -0.0281 CT        1 <0>       -0.13210
      3 C3          0.2117    1.6684    0.8662 CT        1 <0>       -0.13210
      4 C4          0.9791   -1.1574   -1.3784 CT        1 <0>        0.13458
      5 C5          0.0686    0.2298    0.3677 CT        1 <0>        0.34733
      6 O1          0.4413   -0.6121    1.4590 OH        1 <0>       -0.62258
      7 O2          0.9647    0.1133   -0.7445 OS        1 <0>       -0.41438
      8 H1          1.6821   -0.3699   -3.2638 HC        1 <0>        0.04341
      9 H2          2.9744   -0.9012   -2.1612 HC        1 <0>        0.04341
     10 H3          2.0159   -2.1009   -3.0197 HC        1 <0>        0.04341
     11 H4         -1.5212   -1.0532   -0.3903 HC        1 <0>        0.05104
     12 H5         -2.0651    0.1483    0.8132 HC        1 <0>        0.05104
     13 H6         -1.6987    0.6296   -0.8467 HC        1 <0>        0.05104
     14 H7          1.2499    1.8720    1.1549 HC        1 <0>        0.05104
     15 H8         -0.4094    1.8503    1.7500 HC        1 <0>        0.05104
     16 H9         -0.0536    2.3899    0.0860 HC        1 <0>        0.05104
     17 H10         1.2692   -1.9145   -0.6438 H1        1 <0>        0.03518
     18 H11        -0.0276   -1.3802   -1.7444 H1        1 <0>        0.03518
     19 H12        -0.1424   -0.4132    2.2102 HO        1 <0>        0.40933
@<TRIPOS>BOND
     1    1    4 1
     2    2    5 1
     3    3    5 1
     4    4    7 1
     5    5    6 1
     6    5    7 1
     7    1    8 1
     8    1    9 1
     9    1   10 1
    10    2   11 1
    11    2   12 1
    12    2   13 1
    13    3   14 1
    14    3   15 1
    15    3   16 1
    16    4   17 1
    17    4   18 1
    18    6   19 1
@<TRIPOS>SUBSTRUCTURE
     1 <0>         1 GROUP 0 A     ****
