@<TRIPOS>MOLECULE
AlkEthOH_r555
   31    31     1     0     0
SMALL
USER_CHARGES

@<TRIPOS>ATOM
      1 C1          0.2715    1.4993   -0.7595 CT        1 <0>       -0.10345
      2 C2          0.6322   -1.5198    0.1894 CT        1 <0>       -0.10335
      3 C3          1.5956    0.8600   -1.1535 CT        1 <0>        0.13332
      4 C4          2.0640   -0.9918    0.2763 CT        1 <0>        0.13332
      5 C5         -0.9020    0.5260   -0.4347 CT        1 <0>       -0.02852
      6 C6         -0.5314   -0.5899    0.6517 CT        1 <0>       -0.02852
      7 C7         -2.0706    1.4283    0.0541 CT        1 <0>       -0.09232
      8 C8         -1.3860   -0.0948   -1.7734 CT        1 <0>       -0.09232
      9 C9         -0.1769    0.0305    2.0253 CT        1 <0>       -0.09232
     10 C10        -1.7407   -1.5344    0.9105 CT        1 <0>       -0.09232
     11 O1          2.2444    0.3865    0.0138 OS        1 <0>       -0.42016
     12 H1          0.4457    2.1516    0.1063 HC        1 <0>        0.04713
     13 H2         -0.0367    2.1627   -1.5790 HC        1 <0>        0.04713
     14 H3          0.4501   -1.8555   -0.8370 HC        1 <0>        0.04713
     15 H4          0.6149   -2.4499    0.7757 HC        1 <0>        0.04713
     16 H5          1.5028    0.0871   -1.9233 H1        1 <0>        0.04231
     17 H6          2.2416    1.6417   -1.5684 H1        1 <0>        0.04231
     18 H7          2.4494   -1.1679    1.2870 H1        1 <0>        0.04231
     19 H8          2.7101   -1.5654   -0.3991 H1        1 <0>        0.04231
     20 H9         -2.9127    0.7963    0.2931 HC        1 <0>        0.03574
     21 H10        -2.3262    2.1148   -0.7389 HC        1 <0>        0.03574
     22 H11        -1.7420    1.9675    0.9299 HC        1 <0>        0.03574
     23 H12        -2.2005   -0.7726   -1.5630 HC        1 <0>        0.03574
     24 H13        -0.5605   -0.6268   -2.2235 HC        1 <0>        0.03574
     25 H14        -1.7181    0.7031   -2.4217 HC        1 <0>        0.03574
     26 H15        -0.9894    0.6732    2.3370 HC        1 <0>        0.03574
     27 H16         0.7343    0.6044    1.9231 HC        1 <0>        0.03574
     28 H17        -0.0368   -0.7677    2.7419 HC        1 <0>        0.03574
     29 H18        -2.5775   -0.9348    1.2349 HC        1 <0>        0.03574
     30 H19        -1.4621   -2.2417    1.6766 HC        1 <0>        0.03574
     31 H20        -1.9759   -2.0462   -0.0103 HC        1 <0>        0.03574
@<TRIPOS>BOND
     1    1    3 1
     2    1    5 1
     3    2    4 1
     4    2    6 1
     5    3   11 1
     6    4   11 1
     7    5    6 1
     8    5    7 1
     9    5    8 1
    10    6    9 1
    11    6   10 1
    12    1   12 1
    13    1   13 1
    14    2   14 1
    15    2   15 1
    16    3   16 1
    17    3   17 1
    18    4   18 1
    19    4   19 1
    20    7   20 1
    21    7   21 1
    22    7   22 1
    23    8   23 1
    24    8   24 1
    25    8   25 1
    26    9   26 1
    27    9   27 1
    28    9   28 1
    29   10   29 1
    30   10   30 1
    31   10   31 1
@<TRIPOS>SUBSTRUCTURE
     1 <0>         1 GROUP 0 A     ****
