@<TRIPOS>MOLECULE
AlkEthOH_c791
   28    27     1     0     0
SMALL
USER_CHARGES

@<TRIPOS>ATOM
      1 C1         -3.8551   -6.0218   -2.3493 CT        1 <0>       -0.13235
      2 C2         -1.0214    0.8045   -2.3901 CT        1 <0>       -0.08623
      3 C3          0.4792   -1.2018   -2.4664 CT        1 <0>       -0.08623
      4 C4         -0.7910   -0.6603   -0.3744 CT        1 <0>       -0.08623
      5 C5         -2.9432   -3.6776   -2.4098 CT        1 <0>        0.13222
      6 C6         -2.0056   -1.5227   -2.4157 CT        1 <0>        0.13460
      7 C7         -2.7353   -5.0969   -1.8969 CT        1 <0>        0.13835
      8 C8         -0.8419   -0.6460   -1.9115 CT        1 <0>       -0.05342
      9 O1         -1.4977   -5.5836   -2.4138 OH        1 <0>       -0.59121
     10 O2         -1.8564   -2.8685   -1.9816 OS        1 <0>       -0.40822
     11 H1         -3.9339   -6.0228   -3.4418 HC        1 <0>        0.04388
     12 H2         -3.6827   -7.0488   -2.0131 HC        1 <0>        0.04388
     13 H3         -4.8233   -5.6830   -1.9648 HC        1 <0>        0.04388
     14 H4         -1.9565    1.2315   -2.0109 HC        1 <0>        0.03749
     15 H5         -1.0512    0.8581   -3.4844 HC        1 <0>        0.03749
     16 H6         -0.2000    1.4454   -2.0517 HC        1 <0>        0.03749
     17 H7          0.6395   -2.2368   -2.1439 HC        1 <0>        0.03749
     18 H8          0.4858   -1.1896   -3.5621 HC        1 <0>        0.03749
     19 H9          1.3337   -0.6084   -2.1219 HC        1 <0>        0.03749
     20 H10        -0.6635   -1.6762    0.0154 HC        1 <0>        0.03749
     21 H11        -1.7152   -0.2565    0.0546 HC        1 <0>        0.03749
     22 H12         0.0413   -0.0524   -0.0020 HC        1 <0>        0.03749
     23 H13        -2.9707   -3.6516   -3.5041 H1        1 <0>        0.03627
     24 H14        -3.8661   -3.2455   -2.0106 H1        1 <0>        0.03627
     25 H15        -2.0458   -1.5219   -3.5109 H1        1 <0>        0.02539
     26 H16        -2.9643   -1.1489   -2.0389 H1        1 <0>        0.02539
     27 H17        -2.6564   -5.0959   -0.8041 H1        1 <0>        0.04875
     28 H18        -1.3822   -6.4764   -2.0547 HO        1 <0>        0.39760
@<TRIPOS>BOND
     1    1    7 1
     2    2    8 1
     3    3    8 1
     4    4    8 1
     5    5    7 1
     6    5   10 1
     7    6    8 1
     8    6   10 1
     9    7    9 1
    10    1   11 1
    11    1   12 1
    12    1   13 1
    13    2   14 1
    14    2   15 1
    15    2   16 1
    16    3   17 1
    17    3   18 1
    18    3   19 1
    19    4   20 1
    20    4   21 1
    21    4   22 1
    22    5   23 1
    23    5   24 1
    24    6   25 1
    25    6   26 1
    26    7   27 1
    27    9   28 1
@<TRIPOS>SUBSTRUCTURE
     1 <0>         1 GROUP 0 A     ****
