@<TRIPOS>MOLECULE
AlkEthOH_r795
   23    23     1     0     0
SMALL
USER_CHARGES

@<TRIPOS>ATOM
      1 C1          0.4769    1.6040    0.4841 CT        1 <0>       -0.14721
      2 C2         -1.2643   -0.2082    0.0673 CT        1 <0>       -0.10687
      3 C3          1.8179    1.0039    0.0739 CT        1 <0>        0.13436
      4 C4          1.0625   -1.2555    0.3005 CT        1 <0>        0.13034
      5 C5         -0.3640   -1.4164   -0.2305 CT        1 <0>       -0.09041
      6 C6         -0.7121    1.1540   -0.3652 CT        1 <0>        0.14142
      7 C7         -0.9999   -2.6849    0.3422 CT        1 <0>       -0.09105
      8 O1          1.7536   -0.2966   -0.4899 OS        1 <0>       -0.41906
      9 O2         -1.7706    2.0996   -0.1824 OH        1 <0>       -0.59765
     10 H1          0.2784    1.3582    1.5360 HC        1 <0>        0.05285
     11 H2          0.5662    2.6982    0.4718 HC        1 <0>        0.05285
     12 H3         -2.2335   -0.3661   -0.4259 HC        1 <0>        0.04713
     13 H4         -1.5012   -0.1733    1.1399 HC        1 <0>        0.04713
     14 H5          2.2730    1.6460   -0.6885 H1        1 <0>        0.04662
     15 H6          2.5082    0.9955    0.9255 H1        1 <0>        0.04662
     16 H7          1.0901   -1.0060    1.3682 H1        1 <0>        0.04600
     17 H8          1.6039   -2.2002    0.1776 H1        1 <0>        0.04600
     18 H9         -0.3127   -1.5230   -1.3226 HC        1 <0>        0.06751
     19 H10        -0.4578    1.1521   -1.4312 H1        1 <0>        0.09053
     20 H11        -1.0632   -2.6060    1.4253 HC        1 <0>        0.03635
     21 H12        -0.3934   -3.5489    0.0801 HC        1 <0>        0.03635
     22 H13        -1.9998   -2.8103   -0.0676 HC        1 <0>        0.03635
     23 H14        -1.9813    2.0900    0.7624 HO        1 <0>        0.39384
@<TRIPOS>BOND
     1    1    3 1
     2    1    6 1
     3    2    5 1
     4    2    6 1
     5    3    8 1
     6    4    5 1
     7    4    8 1
     8    5    7 1
     9    6    9 1
    10    1   10 1
    11    1   11 1
    12    2   12 1
    13    2   13 1
    14    3   14 1
    15    3   15 1
    16    4   16 1
    17    4   17 1
    18    5   18 1
    19    6   19 1
    20    7   20 1
    21    7   21 1
    22    7   22 1
    23    9   23 1
@<TRIPOS>SUBSTRUCTURE
     1 <0>         1 GROUP 0 A     ****
