@<TRIPOS>MOLECULE
AlkEthOH_r1134
   25    25     1     0     0
SMALL
USER_CHARGES

@<TRIPOS>ATOM
      1 C1         -0.2856    1.9166    1.4568 CT        1 <0>       -0.08798
      2 C2         -0.5159    2.1232   -0.0431 CT        1 <0>       -0.11692
      3 C3          0.1002    0.5051    1.8926 CT        1 <0>        0.13052
      4 C4         -1.6971    1.3410   -0.6153 CT        1 <0>        0.15091
      5 C5          1.0956   -0.9792    0.2866 CT        1 <0>        0.34762
      6 C6         -0.6414   -0.6855   -1.3551 CT        1 <0>        0.52818
      7 C7          2.4502   -1.6564    0.1192 CT        1 <0>       -0.09016
      8 O1          1.2872    0.0694    1.2409 OS        1 <0>       -0.43191
      9 O2         -1.5827   -0.0706   -0.4746 OS        1 <0>       -0.49652
     10 O3          0.7304   -0.4876   -1.0041 OS        1 <0>       -0.46514
     11 O4         -0.9409   -2.0761   -1.5040 OH        1 <0>       -0.62483
     12 H1          0.5226    2.5970    1.7548 HC        1 <0>        0.04529
     13 H2         -1.1799    2.2281    2.0096 HC        1 <0>        0.04529
     14 H3         -0.7071    3.1907   -0.2112 HC        1 <0>        0.06561
     15 H4          0.4034    1.8952   -0.5904 HC        1 <0>        0.06561
     16 H5          0.3277    0.5346    2.9645 H1        1 <0>        0.04436
     17 H6         -0.7259   -0.2041    1.7831 H1        1 <0>        0.04436
     18 H7         -2.6086    1.6374   -0.0843 H1        1 <0>        0.04623
     19 H8         -1.8522    1.5985   -1.6695 H1        1 <0>        0.04623
     20 H9          0.3864   -1.7264    0.6649 H2        1 <0>        0.05607
     21 H10        -0.7641   -0.2431   -2.3507 H3        1 <0>        0.09944
     22 H11         3.1811   -0.9403   -0.2564 HC        1 <0>        0.05409
     23 H12         2.3691   -2.4826   -0.5871 HC        1 <0>        0.05409
     24 H13         2.7945   -2.0432    1.0784 HC        1 <0>        0.05409
     25 H14        -1.8355   -2.1229   -1.8717 HO        1 <0>        0.43547
@<TRIPOS>BOND
     1    1    2 1
     2    1    3 1
     3    2    4 1
     4    3    8 1
     5    4    9 1
     6    5    7 1
     7    5    8 1
     8    5   10 1
     9    6    9 1
    10    6   10 1
    11    6   11 1
    12    1   12 1
    13    1   13 1
    14    2   14 1
    15    2   15 1
    16    3   16 1
    17    3   17 1
    18    4   18 1
    19    4   19 1
    20    5   20 1
    21    6   21 1
    22    7   22 1
    23    7   23 1
    24    7   24 1
    25   11   25 1
@<TRIPOS>SUBSTRUCTURE
     1 <0>         1 GROUP 0 A     ****
