@<TRIPOS>MOLECULE
AlkEthOH_c1001
   23    22     1     0     0
SMALL
USER_CHARGES

@<TRIPOS>ATOM
      1 C1          2.5239   -0.9653    0.9036 CT        1 <0>       -0.08850
      2 C2         -0.8032    1.0558   -1.6325 CT        1 <0>       -0.13360
      3 C3         -1.2526    2.2247    0.5236 CT        1 <0>       -0.13360
      4 C4          1.2391   -1.7786    0.9552 CT        1 <0>       -0.10919
      5 C5          0.1312   -1.1805    0.0825 CT        1 <0>        0.34400
      6 C6         -1.1697    0.8587   -0.1598 CT        1 <0>        0.35254
      7 O1         -1.0128   -2.0301    0.1317 OH        1 <0>       -0.59111
      8 O2         -2.4661    0.2749   -0.0447 OH        1 <0>       -0.58500
      9 O3         -0.1599    0.1352    0.5543 OS        1 <0>       -0.40557
     10 H1          2.8965   -0.8882   -0.1227 HC        1 <0>        0.03839
     11 H2          2.3714    0.0468    1.2915 HC        1 <0>        0.03839
     12 H3          3.2984   -1.4447    1.5105 HC        1 <0>        0.03839
     13 H4         -0.7353    0.0943   -2.1532 HC        1 <0>        0.05082
     14 H5         -1.5352    1.6905   -2.1426 HC        1 <0>        0.05082
     15 H6          0.1777    1.5296   -1.7425 HC        1 <0>        0.05082
     16 H7         -1.5135    2.1288    1.5831 HC        1 <0>        0.05082
     17 H8         -0.2832    2.7352    0.4762 HC        1 <0>        0.05082
     18 H9         -1.9839    2.8747    0.0308 HC        1 <0>        0.05082
     19 H10         0.8995   -1.8321    1.9972 HC        1 <0>        0.05380
     20 H11         1.4413   -2.8091    0.6399 HC        1 <0>        0.05380
     21 H12         0.4785   -1.1511   -0.9542 H2        1 <0>        0.02580
     22 H13        -0.7569   -2.9057   -0.2035 HO        1 <0>        0.39856
     23 H14        -3.1052    0.8748   -0.4644 HO        1 <0>        0.39798
@<TRIPOS>BOND
     1    1    4 1
     2    2    6 1
     3    3    6 1
     4    4    5 1
     5    5    7 1
     6    5    9 1
     7    6    8 1
     8    6    9 1
     9    1   10 1
    10    1   11 1
    11    1   12 1
    12    2   13 1
    13    2   14 1
    14    2   15 1
    15    3   16 1
    16    3   17 1
    17    3   18 1
    18    4   19 1
    19    4   20 1
    20    5   21 1
    21    7   22 1
    22    8   23 1
@<TRIPOS>SUBSTRUCTURE
     1 <0>         1 GROUP 0 A     ****
