@<TRIPOS>MOLECULE
AlkEthOH_c914
   20    19     1     0     0
SMALL
USER_CHARGES

@<TRIPOS>ATOM
      1 C1          0.5943    2.3290    0.6864 CT        1 <0>       -0.09117
      2 C2          1.4191    4.1125   -1.6700 CT        1 <0>       -0.08605
      3 C3          1.7283    2.0728   -3.0804 CT        1 <0>       -0.08605
      4 C4          3.1401    2.4150   -1.0370 CT        1 <0>       -0.08605
      5 C5          0.6586    1.9008   -0.7747 CT        1 <0>       -0.06957
      6 C6          1.7374    2.6049   -1.6377 CT        1 <0>       -0.05492
      7 H1          1.5528    2.1847    1.1926 HC        1 <0>        0.03305
      8 H2          0.3479    3.3942    0.7486 HC        1 <0>        0.03305
      9 H3         -0.1777    1.7821    1.2346 HC        1 <0>        0.03305
     10 H4          1.4145    4.5376   -0.6599 HC        1 <0>        0.03334
     11 H5          0.4360    4.3001   -2.1165 HC        1 <0>        0.03334
     12 H6          2.1616    4.6634   -2.2586 HC        1 <0>        0.03334
     13 H7          1.9493    1.0013   -3.1194 HC        1 <0>        0.03334
     14 H8          0.7537    2.2338   -3.5546 HC        1 <0>        0.03334
     15 H9          2.4829    2.5806   -3.6921 HC        1 <0>        0.03334
     16 H10         3.4109    1.3541   -0.9938 HC        1 <0>        0.03334
     17 H11         3.1884    2.8117   -0.0163 HC        1 <0>        0.03334
     18 H12         3.9059    2.9351   -1.6216 HC        1 <0>        0.03334
     19 H13        -0.3298    2.0706   -1.2218 HC        1 <0>        0.03730
     20 H14         0.8242    0.8158   -0.8034 HC        1 <0>        0.03730
@<TRIPOS>BOND
     1    1    5 1
     2    2    6 1
     3    3    6 1
     4    4    6 1
     5    5    6 1
     6    1    7 1
     7    1    8 1
     8    1    9 1
     9    2   10 1
    10    2   11 1
    11    2   12 1
    12    3   13 1
    13    3   14 1
    14    3   15 1
    15    4   16 1
    16    4   17 1
    17    4   18 1
    18    5   19 1
    19    5   20 1
@<TRIPOS>SUBSTRUCTURE
     1 <0>         1 GROUP 0 A     ****
