@<TRIPOS>MOLECULE
AlkEthOH_c1119
   17    16     1     0     0
SMALL
USER_CHARGES

@<TRIPOS>ATOM
      1 C1         -0.5107    0.9380   -0.3444 CT        1 <0>       -0.09219
      2 C2          2.1551    1.0346   -4.6202 CT        1 <0>       -0.09219
      3 C3         -0.5701    0.9512   -1.8635 CT        1 <0>       -0.07978
      4 C4          0.7651    0.9996   -4.0051 CT        1 <0>       -0.07978
      5 C5          0.8290    0.9520   -2.4788 CT        1 <0>       -0.07904
      6 H1          0.0418    1.8038    0.0342 HC        1 <0>        0.03224
      7 H2         -0.0200    0.0302    0.0211 HC        1 <0>        0.03224
      8 H3         -1.5214    0.9701    0.0747 HC        1 <0>        0.03224
      9 H4          2.7208    1.9007   -4.2624 HC        1 <0>        0.03224
     10 H5          2.0857    1.1010   -5.7105 HC        1 <0>        0.03224
     11 H6          2.7176    0.1293   -4.3701 HC        1 <0>        0.03224
     12 H7         -1.1285    0.0735   -2.2091 HC        1 <0>        0.03791
     13 H8         -1.1229    1.8383   -2.1939 HC        1 <0>        0.03791
     14 H9          0.2266    0.1226   -4.3831 HC        1 <0>        0.03791
     15 H10         0.2071    1.8866   -4.3270 HC        1 <0>        0.03791
     16 H11         1.3706    0.0525   -2.1614 HC        1 <0>        0.03895
     17 H12         1.3933    1.8162   -2.1076 HC        1 <0>        0.03895
@<TRIPOS>BOND
     1    1    3 1
     2    2    4 1
     3    3    5 1
     4    4    5 1
     5    1    6 1
     6    1    7 1
     7    1    8 1
     8    2    9 1
     9    2   10 1
    10    2   11 1
    11    3   12 1
    12    3   13 1
    13    4   14 1
    14    4   15 1
    15    5   16 1
    16    5   17 1
@<TRIPOS>SUBSTRUCTURE
     1 <0>         1 GROUP 0 A     ****
