@<TRIPOS>MOLECULE
AlkEthOH_c398
   28    27     1     0     0
SMALL
USER_CHARGES

@<TRIPOS>ATOM
      1 C1          0.5896    2.1244    0.0305 CT        1 <0>       -0.09245
      2 C2          1.9530    1.2345   -1.8628 CT        1 <0>       -0.09245
      3 C3         -1.6832    0.1760    0.9792 CT        1 <0>       -0.08529
      4 C4         -2.4034   -3.5834   -0.8595 CT        1 <0>        0.11660
      5 C5          0.2088   -0.2509   -0.6921 CT        1 <0>       -0.09607
      6 C6         -0.9786   -2.1840    0.3791 CT        1 <0>        0.09539
      7 C7          1.2610    0.8732   -0.5491 CT        1 <0>       -0.06076
      8 C8         -0.5118   -0.7312    0.5903 CT        1 <0>        0.15888
      9 O1          0.4289   -0.7417    1.6666 OH        1 <0>       -0.59476
     10 O2         -1.9717   -2.2484   -0.6387 OS        1 <0>       -0.41793
     11 H1         -0.1919    2.4945   -0.6417 HC        1 <0>        0.03535
     12 H2          0.1194    1.9029    0.9946 HC        1 <0>        0.03535
     13 H3          1.3156    2.9300    0.1845 HC        1 <0>        0.03535
     14 H4          1.2291    1.5568   -2.6188 HC        1 <0>        0.03535
     15 H5          2.6692    2.0501   -1.7138 HC        1 <0>        0.03535
     16 H6          2.5179    0.3881   -2.2629 HC        1 <0>        0.03535
     17 H7         -2.1793   -0.1802    1.8877 HC        1 <0>        0.04967
     18 H8         -2.4241    0.2388    0.1754 HC        1 <0>        0.04967
     19 H9         -1.3514    1.2064    1.1487 HC        1 <0>        0.04967
     20 H10        -3.1634   -3.5963   -1.6446 H1        1 <0>        0.03336
     21 H11        -2.8144   -3.9923    0.0670 H1        1 <0>        0.03336
     22 H12        -1.5481   -4.1863   -1.1736 H1        1 <0>        0.03336
     23 H13        -0.5527    0.0966   -1.4038 HC        1 <0>        0.05202
     24 H14         0.7002   -1.1163   -1.1586 HC        1 <0>        0.05202
     25 H15        -1.4253   -2.5820    1.2969 H1        1 <0>        0.03142
     26 H16        -0.1435   -2.8265    0.0806 H1        1 <0>        0.03142
     27 H17         2.0269    0.5589    0.1696 HC        1 <0>        0.04299
     28 H18         1.1531   -1.3218    1.3890 HO        1 <0>        0.39778
@<TRIPOS>BOND
     1    1    7 1
     2    2    7 1
     3    3    8 1
     4    4   10 1
     5    5    7 1
     6    5    8 1
     7    6    8 1
     8    6   10 1
     9    8    9 1
    10    1   11 1
    11    1   12 1
    12    1   13 1
    13    2   14 1
    14    2   15 1
    15    2   16 1
    16    3   17 1
    17    3   18 1
    18    3   19 1
    19    4   20 1
    20    4   21 1
    21    4   22 1
    22    5   23 1
    23    5   24 1
    24    6   25 1
    25    6   26 1
    26    7   27 1
    27    9   28 1
@<TRIPOS>SUBSTRUCTURE
     1 <0>         1 GROUP 0 A     ****
