@<TRIPOS>MOLECULE
AlkEthOH_c94
   25    24     1     0     0
SMALL
USER_CHARGES

@<TRIPOS>ATOM
      1 C1         -0.8967   -0.5620    1.4126 CT        1 <0>       -0.09256
      2 C2         -0.6663   -2.5270   -0.9468 CT        1 <0>       -0.13152
      3 C3         -0.4857    2.0526   -0.2590 CT        1 <0>       -0.12271
      4 C4          1.3271    1.5958    1.4006 CT        1 <0>       -0.12271
      5 C5          0.1366   -0.4043    0.2859 CT        1 <0>       -0.04747
      6 C6         -0.3978   -1.0258   -1.0393 CT        1 <0>        0.14713
      7 C7          0.6306    1.0792    0.1325 CT        1 <0>        0.15821
      8 O1          0.5563   -0.8334   -2.0828 OH        1 <0>       -0.56644
      9 O2          1.6137    1.1470   -0.9096 OH        1 <0>       -0.56766
     10 H1         -1.8135   -0.0030    1.2074 HC        1 <0>        0.03776
     11 H2         -1.1618   -1.6122    1.5690 HC        1 <0>        0.03776
     12 H3         -0.5147   -0.1677    2.3592 HC        1 <0>        0.03776
     13 H4          0.2383   -3.0670   -0.6469 HC        1 <0>        0.04089
     14 H5         -0.9598   -2.9262   -1.9243 HC        1 <0>        0.04089
     15 H6         -1.4675   -2.7581   -0.2400 HC        1 <0>        0.04089
     16 H7         -1.0160    1.7304   -1.1598 HC        1 <0>        0.04060
     17 H8         -0.0989    3.0641   -0.4196 HC        1 <0>        0.04060
     18 H9         -1.2194    2.1428    0.5512 HC        1 <0>        0.04060
     19 H10         2.1325    0.9182    1.7058 HC        1 <0>        0.04060
     20 H11         1.7984    2.5686    1.2154 HC        1 <0>        0.04060
     21 H12         0.6339    1.7155    2.2384 HC        1 <0>        0.04060
     22 H13         1.0235   -0.9920    0.5654 HC        1 <0>        0.07053
     23 H14        -1.3240   -0.5244   -1.3408 H1        1 <0>        0.02433
     24 H15         0.1517   -1.1808   -2.8921 HO        1 <0>        0.38487
     25 H16         1.9153    2.0657   -0.9329 HO        1 <0>        0.38645
@<TRIPOS>BOND
     1    1    5 1
     2    2    6 1
     3    3    7 1
     4    4    7 1
     5    5    6 1
     6    5    7 1
     7    6    8 1
     8    7    9 1
     9    1   10 1
    10    1   11 1
    11    1   12 1
    12    2   13 1
    13    2   14 1
    14    2   15 1
    15    3   16 1
    16    3   17 1
    17    3   18 1
    18    4   19 1
    19    4   20 1
    20    4   21 1
    21    5   22 1
    22    6   23 1
    23    8   24 1
    24    9   25 1
@<TRIPOS>SUBSTRUCTURE
     1 <0>         1 GROUP 0 A     ****
