@<TRIPOS>MOLECULE
AlkEthOH_c991
   24    23     1     0     0
SMALL
USER_CHARGES

@<TRIPOS>ATOM
      1 C1         -2.7057   -0.7532   -1.4944 CT        1 <0>       -0.08814
      2 C2          1.1444    1.8672    0.0231 CT        1 <0>       -0.09193
      3 C3          1.8449    0.7061    2.1268 CT        1 <0>       -0.09193
      4 C4         -1.6902   -0.5004   -0.3864 CT        1 <0>       -0.07239
      5 C5          0.7747   -0.6410    0.2981 CT        1 <0>       -0.11103
      6 C6          0.8157    0.7320    0.9929 CT        1 <0>       -0.06178
      7 C7         -0.2547   -0.7983   -0.8319 CT        1 <0>        0.14387
      8 O1         -0.1974   -2.1510   -1.2923 OH        1 <0>       -0.60236
      9 H1         -2.4726   -0.1341   -2.3667 HC        1 <0>        0.03717
     10 H2         -2.6884   -1.8017   -1.8084 HC        1 <0>        0.03717
     11 H3         -3.7217   -0.5064   -1.1708 HC        1 <0>        0.03717
     12 H4          2.1154    1.7093   -0.4585 HC        1 <0>        0.03436
     13 H5          1.1803    2.8280    0.5480 HC        1 <0>        0.03436
     14 H6          0.3848    1.9548   -0.7594 HC        1 <0>        0.03436
     15 H7          2.8482    0.5045    1.7370 HC        1 <0>        0.03436
     16 H8          1.8734    1.6620    2.6608 HC        1 <0>        0.03436
     17 H9          1.6056   -0.0794    2.8515 HC        1 <0>        0.03436
     18 H10        -1.9526   -1.1344    0.4691 HC        1 <0>        0.04571
     19 H11        -1.7830    0.5428   -0.0676 HC        1 <0>        0.04571
     20 H12         1.7698   -0.8721   -0.1069 HC        1 <0>        0.04463
     21 H13         0.5899   -1.4205    1.0501 HC        1 <0>        0.04463
     22 H14        -0.1611    0.9369    1.4461 HC        1 <0>        0.04982
     23 H15         0.0100   -0.1597   -1.6815 H1        1 <0>        0.03126
     24 H16         0.7187   -2.3062   -1.5650 HO        1 <0>        0.39626
@<TRIPOS>BOND
     1    1    4 1
     2    2    6 1
     3    3    6 1
     4    4    7 1
     5    5    6 1
     6    5    7 1
     7    7    8 1
     8    1    9 1
     9    1   10 1
    10    1   11 1
    11    2   12 1
    12    2   13 1
    13    2   14 1
    14    3   15 1
    15    3   16 1
    16    3   17 1
    17    4   18 1
    18    4   19 1
    19    5   20 1
    20    5   21 1
    21    6   22 1
    22    7   23 1
    23    8   24 1
@<TRIPOS>SUBSTRUCTURE
     1 <0>         1 GROUP 0 A     ****
