@<TRIPOS>MOLECULE
AlkEthOH_r19
   23    23     1     0     0
SMALL
USER_CHARGES

@<TRIPOS>ATOM
      1 C1          0.1335    1.3588   -1.2067 CT        1 <0>       -0.10205
      2 C2          0.8548   -0.6174    1.6549 CT        1 <0>       -0.10205
      3 C3         -1.2111    0.6969   -0.9095 CT        1 <0>       -0.08835
      4 C4         -0.5433   -0.0065    1.4881 CT        1 <0>       -0.08835
      5 C5          1.2544    0.4033   -1.6082 CT        1 <0>        0.13023
      6 C6          1.8906   -0.1881    0.6214 CT        1 <0>        0.13023
      7 C7         -1.2467   -0.3865    0.1766 CT        1 <0>        0.14330
      8 O1          1.5010   -0.6364   -0.6707 OS        1 <0>       -0.42296
      9 O2         -2.6332   -0.6241    0.4541 OH        1 <0>       -0.61101
     10 H1         -0.0094    2.0796   -2.0217 HC        1 <0>        0.04879
     11 H2          0.4360    1.9545   -0.3391 HC        1 <0>        0.04879
     12 H3          1.2297   -0.3582    2.6523 HC        1 <0>        0.04879
     13 H4          0.7556   -1.7100    1.6262 HC        1 <0>        0.04879
     14 H5         -1.9247    1.4888   -0.6425 HC        1 <0>        0.04855
     15 H6         -1.6115    0.2650   -1.8367 HC        1 <0>        0.04855
     16 H7         -1.1469   -0.3513    2.3382 HC        1 <0>        0.04855
     17 H8         -0.4888    1.0829    1.5982 HC        1 <0>        0.04855
     18 H9          0.9954   -0.0784   -2.5573 H1        1 <0>        0.04241
     19 H10         2.1841    0.9594   -1.7769 H1        1 <0>        0.04241
     20 H11         2.0766    0.8906    0.6617 H1        1 <0>        0.04241
     21 H12         2.8413   -0.6799    0.8551 H1        1 <0>        0.04241
     22 H13        -0.8555   -1.3288   -0.2215 H1        1 <0>        0.05635
     23 H14        -3.0262   -0.9187   -0.3793 HO        1 <0>        0.39566
@<TRIPOS>BOND
     1    1    3 1
     2    1    5 1
     3    2    4 1
     4    2    6 1
     5    3    7 1
     6    4    7 1
     7    5    8 1
     8    6    8 1
     9    7    9 1
    10    1   10 1
    11    1   11 1
    12    2   12 1
    13    2   13 1
    14    3   14 1
    15    3   15 1
    16    4   16 1
    17    4   17 1
    18    5   18 1
    19    5   19 1
    20    6   20 1
    21    6   21 1
    22    7   22 1
    23    9   23 1
@<TRIPOS>SUBSTRUCTURE
     1 <0>         1 GROUP 0 A     ****
