@<TRIPOS>MOLECULE
AlkEthOH_c383
   36    35     1     0     0
SMALL
USER_CHARGES

@<TRIPOS>ATOM
      1 C1          1.6879   -1.8723    0.2398 CT        1 <0>       -0.09331
      2 C2         -0.4580   -2.8994   -0.5204 CT        1 <0>       -0.09331
      3 C3         -1.9966    0.7898   -1.0734 CT        1 <0>       -0.10752
      4 C4         -2.3657    2.7176    0.4939 CT        1 <0>       -0.10752
      5 C5         -1.4341    3.1326   -1.8013 CT        1 <0>       -0.10752
      6 C6          0.5788    1.2465   -2.2329 CT        1 <0>       -0.10078
      7 C7          1.9217    0.8707   -0.1563 CT        1 <0>       -0.10078
      8 C8         -0.2724   -0.3947   -0.5266 CT        1 <0>       -0.10789
      9 C9          0.5025   -1.7194   -0.7127 CT        1 <0>       -0.05758
     10 C10        -1.4887    2.1593   -0.6246 CT        1 <0>        0.16098
     11 C11         0.5076    0.9241   -0.7347 CT        1 <0>        0.17548
     12 O1         -0.1778    2.0061   -0.1039 OS        1 <0>       -0.43852
     13 H1          1.3690   -1.8243    1.2846 HC        1 <0>        0.03370
     14 H2          2.4120   -1.0633    0.0930 HC        1 <0>        0.03370
     15 H3          2.2082   -2.8224    0.0788 HC        1 <0>        0.03370
     16 H4         -0.8717   -2.9040    0.4937 HC        1 <0>        0.03370
     17 H5         -1.2980   -2.8365   -1.2203 HC        1 <0>        0.03370
     18 H6          0.0494   -3.8562   -0.6849 HC        1 <0>        0.03370
     19 H7         -1.3697    0.3856   -1.8763 HC        1 <0>        0.04150
     20 H8         -2.0075    0.0727   -0.2462 HC        1 <0>        0.04150
     21 H9         -3.0114    0.8635   -1.4810 HC        1 <0>        0.04150
     22 H10        -2.0049    3.7001    0.8191 HC        1 <0>        0.04150
     23 H11        -2.3324    2.0689    1.3767 HC        1 <0>        0.04150
     24 H12        -3.4088    2.8188    0.1772 HC        1 <0>        0.04150
     25 H13        -1.0697    4.1149   -1.4796 HC        1 <0>        0.04150
     26 H14        -0.7796    2.7653   -2.5984 HC        1 <0>        0.04150
     27 H15        -2.4342    3.2953   -2.2191 HC        1 <0>        0.04150
     28 H16        -0.4180    1.2934   -2.6838 HC        1 <0>        0.04296
     29 H17         1.0815    2.2057   -2.4029 HC        1 <0>        0.04296
     30 H18         1.1668    0.4916   -2.7676 HC        1 <0>        0.04296
     31 H19         1.9093    0.6421    0.9145 HC        1 <0>        0.04296
     32 H20         2.4147    1.8458   -0.2463 HC        1 <0>        0.04296
     33 H21         2.5383    0.1254   -0.6687 HC        1 <0>        0.04296
     34 H22        -1.1217   -0.4041   -1.2236 HC        1 <0>        0.04906
     35 H23        -0.7010   -0.3918    0.4853 HC        1 <0>        0.04906
     36 H24         0.8773   -1.7748   -1.7415 HC        1 <0>        0.04669
@<TRIPOS>BOND
     1    1    9 1
     2    2    9 1
     3    3   10 1
     4    4   10 1
     5    5   10 1
     6    6   11 1
     7    7   11 1
     8    8    9 1
     9    8   11 1
    10   10   12 1
    11   11   12 1
    12    1   13 1
    13    1   14 1
    14    1   15 1
    15    2   16 1
    16    2   17 1
    17    2   18 1
    18    3   19 1
    19    3   20 1
    20    3   21 1
    21    4   22 1
    22    4   23 1
    23    4   24 1
    24    5   25 1
    25    5   26 1
    26    5   27 1
    27    6   28 1
    28    6   29 1
    29    6   30 1
    30    7   31 1
    31    7   32 1
    32    7   33 1
    33    8   34 1
    34    8   35 1
    35    9   36 1
@<TRIPOS>SUBSTRUCTURE
     1 <0>         1 GROUP 0 A     ****
