@<TRIPOS>MOLECULE
AlkEthOH_r18
   17    17     1     0     0
SMALL
USER_CHARGES

@<TRIPOS>ATOM
      1 C1          0.8799   -0.4996    0.4197 CT        1 <0>       -0.11415
      2 C2          1.1010   -0.0360    1.8608 CT        1 <0>       -0.11415
      3 C3          0.7374   -2.3905    1.9686 CT        1 <0>       -0.11608
      4 C4          0.6766   -2.0158    0.4867 CT        1 <0>        0.13916
      5 C5          1.5683   -1.2805    2.6002 CT        1 <0>        0.13916
      6 O1          1.7316   -2.6543   -0.2246 OH        1 <0>       -0.60115
      7 O2          2.9485   -1.5158    2.3524 OH        1 <0>       -0.60115
      8 H1         -0.0002   -0.0003    0.0001 HC        1 <0>        0.05309
      9 H2          1.7406   -0.2362   -0.2055 HC        1 <0>        0.05309
     10 H3          1.8253    0.7833    1.9045 HC        1 <0>        0.05309
     11 H4          0.1506    0.3155    2.2796 HC        1 <0>        0.05309
     12 H5         -0.2741   -2.3701    2.3910 HC        1 <0>        0.06857
     13 H6          1.1779   -3.3793    2.1292 HC        1 <0>        0.06857
     14 H7         -0.2693   -2.3202    0.0276 H1        1 <0>        0.05571
     15 H8          1.4165   -1.2074    3.6811 H1        1 <0>        0.05571
     16 H9          1.6829   -2.3349   -1.1395 HO        1 <0>        0.40372
     17 H10         3.1886   -2.3163    2.8461 HO        1 <0>        0.40372
@<TRIPOS>BOND
     1    1    2 1
     2    1    4 1
     3    2    5 1
     4    3    4 1
     5    3    5 1
     6    4    6 1
     7    5    7 1
     8    1    8 1
     9    1    9 1
    10    2   10 1
    11    2   11 1
    12    3   12 1
    13    3   13 1
    14    4   14 1
    15    5   15 1
    16    6   16 1
    17    7   17 1
@<TRIPOS>SUBSTRUCTURE
     1 <0>         1 GROUP 0 A     ****
