@<TRIPOS>MOLECULE
AlkEthOH_c195
   29    28     1     0     0
SMALL
USER_CHARGES

@<TRIPOS>ATOM
      1 C1         -1.2114   -2.5010   -0.8449 CT        1 <0>       -0.12259
      2 C2          1.1978   -2.1769   -0.2571 CT        1 <0>       -0.12259
      3 C3          0.2730    2.2629   -1.2245 CT        1 <0>       -0.12743
      4 C4          0.5017    1.3074    1.1056 CT        1 <0>       -0.10447
      5 C5         -0.2898   -0.1673   -0.8980 CT        1 <0>       -0.05154
      6 C6         -0.8749    1.7243    1.6099 CT        1 <0>        0.13916
      7 C7         -0.1947   -1.5481   -0.1983 CT        1 <0>        0.15655
      8 C8          0.5989    1.0053   -0.4011 CT        1 <0>        0.16510
      9 O1         -0.7830    1.9956    3.0039 OH        1 <0>       -0.60522
     10 O2         -0.5697   -1.4076    1.1721 OH        1 <0>       -0.60409
     11 O3          1.9745    0.7011   -0.6665 OH        1 <0>       -0.60560
     12 H1         -2.2245   -2.0860   -0.8229 HC        1 <0>        0.04451
     13 H2         -1.2199   -3.4689   -0.3304 HC        1 <0>        0.04451
     14 H3         -0.9468   -2.7105   -1.8879 HC        1 <0>        0.04451
     15 H4          1.9522   -1.5257    0.1953 HC        1 <0>        0.04451
     16 H5          1.4925   -2.4105   -1.2851 HC        1 <0>        0.04451
     17 H6          1.2288   -3.1063    0.3241 HC        1 <0>        0.04451
     18 H7          0.3406    2.0541   -2.2984 HC        1 <0>        0.04244
     19 H8         -0.7562    2.5934   -1.0413 HC        1 <0>        0.04244
     20 H9          0.9421    3.0959   -0.9882 HC        1 <0>        0.04244
     21 H10         1.2190    2.1014    1.3603 HC        1 <0>        0.06360
     22 H11         0.8692    0.4540    1.6893 HC        1 <0>        0.06360
     23 H12        -0.0586   -0.3270   -1.9611 HC        1 <0>        0.05460
     24 H13        -1.3368    0.1623   -0.8534 HC        1 <0>        0.05460
     25 H14        -1.2207    2.6346    1.1120 H1        1 <0>        0.02802
     26 H15        -1.6180    0.9363    1.4653 H1        1 <0>        0.02802
     27 H16        -1.6706    2.2574    3.2956 HO        1 <0>        0.39758
     28 H17        -0.5340   -2.2958    1.5580 HO        1 <0>        0.39897
     29 H18         2.4799    1.4747   -0.3802 HO        1 <0>        0.39935
@<TRIPOS>BOND
     1    1    7 1
     2    2    7 1
     3    3    8 1
     4    4    6 1
     5    4    8 1
     6    5    7 1
     7    5    8 1
     8    6    9 1
     9    7   10 1
    10    8   11 1
    11    1   12 1
    12    1   13 1
    13    1   14 1
    14    2   15 1
    15    2   16 1
    16    2   17 1
    17    3   18 1
    18    3   19 1
    19    3   20 1
    20    4   21 1
    21    4   22 1
    22    5   23 1
    23    5   24 1
    24    6   25 1
    25    6   26 1
    26    9   27 1
    27   10   28 1
    28   11   29 1
@<TRIPOS>SUBSTRUCTURE
     1 <0>         1 GROUP 0 A     ****
