@<TRIPOS>MOLECULE
AlkEthOH_c775
   23    22     1     0     0
SMALL
USER_CHARGES

@<TRIPOS>ATOM
      1 C1          2.1066   -1.9875   -0.6431 CT        1 <0>       -0.11650
      2 C2         -1.3879    0.3925   -0.0729 CT        1 <0>       -0.12889
      3 C3          0.5116    1.4807    1.1275 CT        1 <0>       -0.12889
      4 C4          1.3256   -1.0033   -2.8229 CT        1 <0>        0.12247
      5 C5          1.0255   -1.1748   -1.3393 CT        1 <0>        0.15857
      6 C6          0.0686    0.2298    0.3677 CT        1 <0>        0.35262
      7 O1          0.2988   -0.2138   -3.4139 OH        1 <0>       -0.59725
      8 O2          0.1901   -0.8596    1.2826 OH        1 <0>       -0.62946
      9 O3          0.9647    0.1133   -0.7445 OS        1 <0>       -0.41504
     10 H1          3.0867   -1.5174   -0.7782 HC        1 <0>        0.04618
     11 H2          1.9092   -2.0754    0.4297 HC        1 <0>        0.04618
     12 H3          2.1788   -2.9932   -1.0716 HC        1 <0>        0.04618
     13 H4         -1.7346   -0.4903   -0.6213 HC        1 <0>        0.05140
     14 H5         -2.0460    0.5650    0.7850 HC        1 <0>        0.05140
     15 H6         -1.5044    1.2420   -0.7543 HC        1 <0>        0.05140
     16 H7          1.5546    1.3824    1.4517 HC        1 <0>        0.05140
     17 H8         -0.0917    1.6376    2.0283 HC        1 <0>        0.05140
     18 H9          0.4530    2.3737    0.4959 HC        1 <0>        0.05140
     19 H10         2.2782   -0.4859   -2.9774 H1        1 <0>        0.03149
     20 H11         1.3476   -1.9703   -3.3349 H1        1 <0>        0.03149
     21 H12         0.0452   -1.6450   -1.2041 H1        1 <0>        0.06316
     22 H13         0.5223   -0.1260   -4.3539 HO        1 <0>        0.39839
     23 H14        -0.3668   -0.6710    2.0564 HO        1 <0>        0.41090
@<TRIPOS>BOND
     1    1    5 1
     2    2    6 1
     3    3    6 1
     4    4    5 1
     5    4    7 1
     6    5    9 1
     7    6    8 1
     8    6    9 1
     9    1   10 1
    10    1   11 1
    11    1   12 1
    12    2   13 1
    13    2   14 1
    14    2   15 1
    15    3   16 1
    16    3   17 1
    17    3   18 1
    18    4   19 1
    19    4   20 1
    20    5   21 1
    21    7   22 1
    22    8   23 1
@<TRIPOS>SUBSTRUCTURE
     1 <0>         1 GROUP 0 A     ****
