@<TRIPOS>MOLECULE
AlkEthOH_c963
   24    23     1     0     0
SMALL
USER_CHARGES

@<TRIPOS>ATOM
      1 C1          0.2535   -2.1528   -1.8346 CT        1 <0>       -0.09097
      2 C2          1.1107   -0.9976    0.8189 CT        1 <0>       -0.09306
      3 C3          0.6277    1.9975    0.0343 CT        1 <0>       -0.12268
      4 C4         -0.8081    1.1886    1.9160 CT        1 <0>       -0.12268
      5 C5          0.0056   -0.6997   -1.4473 CT        1 <0>       -0.07724
      6 C6         -0.1304   -0.4781    0.0803 CT        1 <0>       -0.04729
      7 C7         -0.4718    1.0069    0.4294 CT        1 <0>        0.15428
      8 O1         -1.6462    1.3879   -0.3028 OH        1 <0>       -0.60308
      9 H1         -0.5340   -2.8115   -1.4582 HC        1 <0>        0.03149
     10 H2          0.3139   -2.2660   -2.9215 HC        1 <0>        0.03149
     11 H3          1.2004   -2.4968   -1.4060 HC        1 <0>        0.03149
     12 H4          2.0082   -0.4358    0.5421 HC        1 <0>        0.03544
     13 H5          1.2943   -2.0516    0.5881 HC        1 <0>        0.03544
     14 H6          0.9901   -0.9391    1.9041 HC        1 <0>        0.03544
     15 H7          0.9040    1.9074   -1.0203 HC        1 <0>        0.04196
     16 H8          0.3271    3.0315    0.2327 HC        1 <0>        0.04196
     17 H9          1.5299    1.8305    0.6351 HC        1 <0>        0.04196
     18 H10        -1.5944    0.4889    2.2236 HC        1 <0>        0.04196
     19 H11        -1.1516    2.2016    2.1442 HC        1 <0>        0.04196
     20 H12         0.0628    0.9655    2.5428 HC        1 <0>        0.04196
     21 H13         0.8218   -0.0885   -1.8490 HC        1 <0>        0.04854
     22 H14        -0.9119   -0.3768   -1.9525 HC        1 <0>        0.04854
     23 H15        -0.9852   -1.0871    0.4079 HC        1 <0>        0.05681
     24 H16        -1.8479    2.2931   -0.0295 HO        1 <0>        0.39628
@<TRIPOS>BOND
     1    1    5 1
     2    2    6 1
     3    3    7 1
     4    4    7 1
     5    5    6 1
     6    6    7 1
     7    7    8 1
     8    1    9 1
     9    1   10 1
    10    1   11 1
    11    2   12 1
    12    2   13 1
    13    2   14 1
    14    3   15 1
    15    3   16 1
    16    3   17 1
    17    4   18 1
    18    4   19 1
    19    4   20 1
    20    5   21 1
    21    5   22 1
    22    6   23 1
    23    8   24 1
@<TRIPOS>SUBSTRUCTURE
     1 <0>         1 GROUP 0 A     ****
