@<TRIPOS>MOLECULE
AlkEthOH_r190
   26    26     1     0     0
SMALL
USER_CHARGES

@<TRIPOS>ATOM
      1 C1          0.1786    1.9430    0.9356 CT        1 <0>       -0.10876
      2 C2          0.5108    0.5710    1.5128 CT        1 <0>       -0.10531
      3 C3          0.4133    1.9741   -0.5641 CT        1 <0>        0.13050
      4 C4         -0.1757   -0.5621    0.7271 CT        1 <0>        0.13293
      5 C5          0.0558   -0.4121   -0.8104 CT        1 <0>        0.16965
      6 C6          0.2761   -1.9146    1.2902 CT        1 <0>       -0.12098
      7 C7          1.4997   -0.7262   -1.2454 CT        1 <0>       -0.10036
      8 C8         -0.8825   -1.3222   -1.6259 CT        1 <0>       -0.10036
      9 O1         -0.2927    0.9265   -1.2224 OS        1 <0>       -0.40339
     10 O2         -1.5835   -0.4773    1.0026 OH        1 <0>       -0.58508
     11 H1         -0.8768    2.1642    1.1372 HC        1 <0>        0.05344
     12 H2          0.7727    2.7184    1.4307 HC        1 <0>        0.05344
     13 H3          1.5989    0.4348    1.5051 HC        1 <0>        0.04552
     14 H4          0.1936    0.5530    2.5633 HC        1 <0>        0.04552
     15 H5          0.0457    2.9220   -0.9710 H1        1 <0>        0.04466
     16 H6          1.4800    1.9219   -0.8047 H1        1 <0>        0.04466
     17 H7         -0.2066   -2.7158    0.7379 HC        1 <0>        0.04355
     18 H8          0.0003   -1.9799    2.3388 HC        1 <0>        0.04355
     19 H9          1.3542   -2.0050    1.1925 HC        1 <0>        0.04355
     20 H10         1.5828   -0.6011   -2.3192 HC        1 <0>        0.04641
     21 H11         1.7379   -1.7489   -0.9755 HC        1 <0>        0.04641
     22 H12         2.1784   -0.0461   -0.7429 HC        1 <0>        0.04641
     23 H13        -0.6840   -1.1823   -2.6827 HC        1 <0>        0.04641
     24 H14        -1.9115   -1.0588   -1.4079 HC        1 <0>        0.04641
     25 H15        -0.7022   -2.3558   -1.3522 HC        1 <0>        0.04641
     26 H16        -1.6723   -0.5885    1.9583 HO        1 <0>        0.39481
@<TRIPOS>BOND
     1    1    2 1
     2    1    3 1
     3    2    4 1
     4    3    9 1
     5    4    5 1
     6    4    6 1
     7    4   10 1
     8    5    7 1
     9    5    8 1
    10    5    9 1
    11    1   11 1
    12    1   12 1
    13    2   13 1
    14    2   14 1
    15    3   15 1
    16    3   16 1
    17    6   17 1
    18    6   18 1
    19    6   19 1
    20    7   20 1
    21    7   21 1
    22    7   22 1
    23    8   23 1
    24    8   24 1
    25    8   25 1
    26   10   26 1
@<TRIPOS>SUBSTRUCTURE
     1 <0>         1 GROUP 0 A     ****
