@<TRIPOS>MOLECULE
AlkEthOH_c1010
   25    24     1     0     0
SMALL
USER_CHARGES

@<TRIPOS>ATOM
      1 C1         -0.0404   -0.5783    0.9882 CT        1 <0>       -0.09143
      2 C2          2.1066   -2.8539    5.4293 CT        1 <0>       -0.12437
      3 C3          4.3903   -1.8453    5.4487 CT        1 <0>       -0.12437
      4 C4          1.3821   -0.8098    1.4737 CT        1 <0>       -0.08015
      5 C5          1.4230   -1.0681    2.9846 CT        1 <0>       -0.10745
      6 C6          2.8514   -1.3558    3.4804 CT        1 <0>        0.15225
      7 C7          2.9366   -1.6395    5.0021 CT        1 <0>        0.11993
      8 O1          3.3670   -2.4575    2.7354 OH        1 <0>       -0.59520
      9 O2          2.4282   -0.5073    5.7149 OH        1 <0>       -0.59816
     10 H1         -0.6775   -1.4389    1.2153 HC        1 <0>        0.03287
     11 H2         -0.4699    0.3008    1.4788 HC        1 <0>        0.03287
     12 H3         -0.0631   -0.4091   -0.0930 HC        1 <0>        0.03287
     13 H4          1.0589   -2.7479    5.1292 HC        1 <0>        0.04512
     14 H5          2.4997   -3.7856    5.0106 HC        1 <0>        0.04512
     15 H6          2.0944   -2.9483    6.5217 HC        1 <0>        0.04512
     16 H7          5.0111   -0.9902    5.1564 HC        1 <0>        0.04512
     17 H8          4.8273   -2.7229    4.9589 HC        1 <0>        0.04512
     18 H9          4.4749   -1.9743    6.5321 HC        1 <0>        0.04512
     19 H10         1.9909    0.0688    1.2308 HC        1 <0>        0.04439
     20 H11         1.8088   -1.6612    0.9315 HC        1 <0>        0.04439
     21 H12         1.0102   -0.1975    3.5067 HC        1 <0>        0.05349
     22 H13         0.7740   -1.9256    3.1987 HC        1 <0>        0.05349
     23 H14         3.4669   -0.4770    3.2472 H1        1 <0>        0.08522
     24 H15         2.7740   -3.2055    2.9046 HO        1 <0>        0.39702
     25 H16         2.5361   -0.7095    6.6555 HO        1 <0>        0.40162
@<TRIPOS>BOND
     1    1    4 1
     2    2    7 1
     3    3    7 1
     4    4    5 1
     5    5    6 1
     6    6    7 1
     7    6    8 1
     8    7    9 1
     9    1   10 1
    10    1   11 1
    11    1   12 1
    12    2   13 1
    13    2   14 1
    14    2   15 1
    15    3   16 1
    16    3   17 1
    17    3   18 1
    18    4   19 1
    19    4   20 1
    20    5   21 1
    21    5   22 1
    22    6   23 1
    23    8   24 1
    24    9   25 1
@<TRIPOS>SUBSTRUCTURE
     1 <0>         1 GROUP 0 A     ****
