@<TRIPOS>MOLECULE
AlkEthOH_r992
   23    23     1     0     0
SMALL
USER_CHARGES

@<TRIPOS>ATOM
      1 C1         -1.6059    0.8332    0.1468 CT        1 <0>       -0.10823
      2 C2         -0.0406   -1.0909   -0.1966 CT        1 <0>       -0.12279
      3 C3         -0.3953    1.6631    0.5504 CT        1 <0>        0.13477
      4 C4         -1.1953   -0.2876   -0.8119 CT        1 <0>       -0.06290
      5 C5          1.1109   -0.1723    0.2409 CT        1 <0>        0.34217
      6 C6         -2.3808   -1.1925   -1.1379 CT        1 <0>       -0.08970
      7 C7          2.1583   -0.9785    1.0092 CT        1 <0>       -0.11468
      8 O1          0.6232    0.8455    1.1242 OS        1 <0>       -0.40472
      9 O2          1.7255    0.3801   -0.9250 OH        1 <0>       -0.61806
     10 H1         -2.0509    0.3932    1.0485 HC        1 <0>        0.04929
     11 H2         -2.3640    1.4763   -0.3138 HC        1 <0>        0.04929
     12 H3         -0.4211   -1.6402    0.6748 HC        1 <0>        0.05230
     13 H4          0.3170   -1.8272   -0.9271 HC        1 <0>        0.05230
     14 H5          0.0126    2.2148   -0.3043 H1        1 <0>        0.05626
     15 H6         -0.6891    2.4020    1.3028 H1        1 <0>        0.05626
     16 H7         -0.8490    0.1652   -1.7502 HC        1 <0>        0.05855
     17 H8         -2.7510   -1.6598   -0.2266 HC        1 <0>        0.03492
     18 H9         -2.0722   -1.9690   -1.8362 HC        1 <0>        0.03492
     19 H10        -3.1807   -0.6062   -1.5879 HC        1 <0>        0.03492
     20 H11         2.9719   -0.3248    1.3173 HC        1 <0>        0.05257
     21 H12         2.5544   -1.7673    0.3727 HC        1 <0>        0.05257
     22 H13         1.7039   -1.4248    1.8916 HC        1 <0>        0.05257
     23 H14         2.0509   -0.3709   -1.4431 HO        1 <0>        0.40742
@<TRIPOS>BOND
     1    1    3 1
     2    1    4 1
     3    2    4 1
     4    2    5 1
     5    3    8 1
     6    4    6 1
     7    5    7 1
     8    5    8 1
     9    5    9 1
    10    1   10 1
    11    1   11 1
    12    2   12 1
    13    2   13 1
    14    3   14 1
    15    3   15 1
    16    4   16 1
    17    6   17 1
    18    6   18 1
    19    6   19 1
    20    7   20 1
    21    7   21 1
    22    7   22 1
    23    9   23 1
@<TRIPOS>SUBSTRUCTURE
     1 <0>         1 GROUP 0 A     ****
