@<TRIPOS>MOLECULE
AlkEthOH_c1213
   29    28     1     0     0
SMALL
USER_CHARGES

@<TRIPOS>ATOM
      1 C1         -2.1955   -1.2658   -3.0184 CT        1 <0>       -0.09389
      2 C2         -2.3960    0.4947    0.4680 CT        1 <0>       -0.10705
      3 C3         -1.8285   -0.1941    2.8160 CT        1 <0>       -0.10705
      4 C4         -0.9691    1.9849    1.9095 CT        1 <0>       -0.10705
      5 C5          1.3325   -0.8319   -0.6670 CT        1 <0>       -0.11707
      6 C6         -1.0808   -0.4588   -2.3876 CT        1 <0>        0.13877
      7 C7         -1.3390    0.5416    1.5705 CT        1 <0>        0.18002
      8 C8          0.0470   -0.0730   -0.3097 CT        1 <0>        0.53869
      9 O1          0.1415    1.2686   -0.8003 OH        1 <0>       -0.63069
     10 O2         -0.9914   -0.7917   -1.0081 OS        1 <0>       -0.46859
     11 O3         -0.1742   -0.1271    1.1086 OS        1 <0>       -0.41598
     12 H1         -1.9991   -2.3380   -2.9302 HC        1 <0>        0.04598
     13 H2         -3.1538   -1.0413   -2.5386 HC        1 <0>        0.04598
     14 H3         -2.3031   -1.0125   -4.0783 HC        1 <0>        0.04598
     15 H4         -2.0484    1.0217   -0.4277 HC        1 <0>        0.04516
     16 H5         -2.6446   -0.5350    0.1912 HC        1 <0>        0.04516
     17 H6         -3.3155    0.9991    0.7862 HC        1 <0>        0.04516
     18 H7         -1.0732   -0.1629    3.6096 HC        1 <0>        0.04516
     19 H8         -2.0049   -1.2538    2.5992 HC        1 <0>        0.04516
     20 H9         -2.7562    0.2398    3.2030 HC        1 <0>        0.04516
     21 H10        -0.2109    2.0189    2.7002 HC        1 <0>        0.04516
     22 H11        -0.5809    2.5177    1.0354 HC        1 <0>        0.04516
     23 H12        -1.8393    2.5306    2.2919 HC        1 <0>        0.04516
     24 H13         1.3105   -1.8672   -0.3124 HC        1 <0>        0.06039
     25 H14         2.2055   -0.3532   -0.2081 HC        1 <0>        0.06039
     26 H15         1.4886   -0.8462   -1.7512 HC        1 <0>        0.06039
     27 H16        -1.2834    0.6125   -2.4792 H1        1 <0>        0.02456
     28 H17        -0.1240   -0.6849   -2.8676 H1        1 <0>        0.02456
     29 H18         0.2538    1.2481   -1.7650 HO        1 <0>        0.41522
@<TRIPOS>BOND
     1    1    6 1
     2    2    7 1
     3    3    7 1
     4    4    7 1
     5    5    8 1
     6    6   10 1
     7    7   11 1
     8    8    9 1
     9    8   10 1
    10    8   11 1
    11    1   12 1
    12    1   13 1
    13    1   14 1
    14    2   15 1
    15    2   16 1
    16    2   17 1
    17    3   18 1
    18    3   19 1
    19    3   20 1
    20    4   21 1
    21    4   22 1
    22    4   23 1
    23    5   24 1
    24    5   25 1
    25    5   26 1
    26    6   27 1
    27    6   28 1
    28    9   29 1
@<TRIPOS>SUBSTRUCTURE
     1 <0>         1 GROUP 0 A     ****
