@<TRIPOS>MOLECULE
AlkEthOH_r494
   24    24     1     0     0
SMALL
USER_CHARGES

@<TRIPOS>ATOM
      1 C1         -0.0258   -1.1567   -1.6357 CT        1 <0>       -0.09567
      2 C2         -0.7325    0.1634   -1.3385 CT        1 <0>       -0.09754
      3 C3          0.2093   -2.0323   -0.4144 CT        1 <0>        0.12460
      4 C4          0.8163   -0.6906    1.4822 CT        1 <0>        0.11376
      5 C5         -0.1860    0.4275    1.1731 CT        1 <0>        0.11924
      6 C6         -0.1254    1.0545   -0.2366 CT        1 <0>        0.16487
      7 C7          1.2796    1.5463   -0.6010 CT        1 <0>       -0.12606
      8 O1          1.2459   -1.4711    0.3748 OS        1 <0>       -0.41945
      9 O2         -1.5133   -0.0666    1.3999 OH        1 <0>       -0.59625
     10 O3         -0.9681    2.2255   -0.2038 OH        1 <0>       -0.60762
     11 H1         -0.6311   -1.7134   -2.3610 HC        1 <0>        0.04843
     12 H2          0.9345   -0.9430   -2.1204 HC        1 <0>        0.04843
     13 H3         -0.7836    0.7408   -2.2725 HC        1 <0>        0.05239
     14 H4         -1.7839   -0.0469   -1.0994 HC        1 <0>        0.05239
     15 H5         -0.7035   -2.2149    0.1625 H1        1 <0>        0.05640
     16 H6          0.5712   -3.0083   -0.7557 H1        1 <0>        0.05640
     17 H7          1.7268   -0.2378    1.8906 H1        1 <0>        0.04950
     18 H8          0.4250   -1.3685    2.2501 H1        1 <0>        0.04950
     19 H9         -0.0529    1.2123    1.9282 H1        1 <0>        0.05565
     20 H10         1.6672    2.1686    0.2017 HC        1 <0>        0.04910
     21 H11         1.2353    2.1276   -1.5186 HC        1 <0>        0.04910
     22 H12         1.9378    0.6932   -0.7458 HC        1 <0>        0.04910
     23 H13        -1.5473   -0.3248    2.3316 HO        1 <0>        0.40297
     24 H14        -0.9080    2.6121   -1.0859 HO        1 <0>        0.40076
@<TRIPOS>BOND
     1    1    2 1
     2    1    3 1
     3    2    6 1
     4    3    8 1
     5    4    5 1
     6    4    8 1
     7    5    6 1
     8    5    9 1
     9    6    7 1
    10    6   10 1
    11    1   11 1
    12    1   12 1
    13    2   13 1
    14    2   14 1
    15    3   15 1
    16    3   16 1
    17    4   17 1
    18    4   18 1
    19    5   19 1
    20    7   20 1
    21    7   21 1
    22    7   22 1
    23    9   23 1
    24   10   24 1
@<TRIPOS>SUBSTRUCTURE
     1 <0>         1 GROUP 0 A     ****
