@<TRIPOS>MOLECULE
AlkEthOH_r850
   27    27     1     0     0
SMALL
USER_CHARGES

@<TRIPOS>ATOM
      1 C1         -0.4298   -0.5171    0.8654 CT        1 <0>       -0.07451
      2 C2          0.1218   -1.9371    0.9427 CT        1 <0>       -0.07227
      3 C3         -1.9552   -0.5077    0.7804 CT        1 <0>       -0.06725
      4 C4         -1.9050   -2.7949   -0.3023 CT        1 <0>       -0.06424
      5 C5         -0.3696   -2.8055   -0.2212 CT        1 <0>       -0.06490
      6 C6         -2.5108   -1.3733   -0.3722 CT        1 <0>       -0.05184
      7 C7          0.1491   -4.2365   -0.0771 CT        1 <0>       -0.09002
      8 C8         -2.2088   -0.7203   -1.7350 CT        1 <0>       -0.08601
      9 C9         -4.0413   -1.4752   -0.2271 CT        1 <0>       -0.08601
     10 H1         -0.1128    0.0445    1.7520 HC        1 <0>        0.03877
     11 H2         -0.0000    0.0002    0.0001 HC        1 <0>        0.03877
     12 H3          1.2177   -1.8994    0.9443 HC        1 <0>        0.03823
     13 H4         -0.1800   -2.3879    1.8970 HC        1 <0>        0.03823
     14 H5         -2.3531   -0.8755    1.7359 HC        1 <0>        0.03833
     15 H6         -2.3039    0.5278    0.6805 HC        1 <0>        0.03833
     16 H7         -2.2294   -3.3807   -1.1724 HC        1 <0>        0.03958
     17 H8         -2.3067   -3.3121    0.5804 HC        1 <0>        0.03958
     18 H9          0.0402   -2.4017   -1.1552 HC        1 <0>        0.04729
     19 H10        -0.2356   -4.6761    0.8410 HC        1 <0>        0.03276
     20 H11         1.2367   -4.2314   -0.0432 HC        1 <0>        0.03276
     21 H12        -0.1800   -4.8337   -0.9253 HC        1 <0>        0.03276
     22 H13        -2.6082   -1.3461   -2.5252 HC        1 <0>        0.03361
     23 H14        -1.1355   -0.6216   -1.8517 HC        1 <0>        0.03361
     24 H15        -2.6740    0.2584   -1.7709 HC        1 <0>        0.03361
     25 H16        -4.4355   -2.0822   -1.0345 HC        1 <0>        0.03361
     26 H17        -4.4698   -0.4803   -0.2729 HC        1 <0>        0.03361
     27 H18        -4.2783   -1.9337    0.7265 HC        1 <0>        0.03361
@<TRIPOS>BOND
     1    1    2 1
     2    1    3 1
     3    2    5 1
     4    3    6 1
     5    4    5 1
     6    4    6 1
     7    5    7 1
     8    6    8 1
     9    6    9 1
    10    1   10 1
    11    1   11 1
    12    2   12 1
    13    2   13 1
    14    3   14 1
    15    3   15 1
    16    4   16 1
    17    4   17 1
    18    5   18 1
    19    7   19 1
    20    7   20 1
    21    7   21 1
    22    8   22 1
    23    8   23 1
    24    8   24 1
    25    9   25 1
    26    9   26 1
    27    9   27 1
@<TRIPOS>SUBSTRUCTURE
     1 <0>         1 GROUP 0 A     ****
