@<TRIPOS>MOLECULE
AlkEthOH_c434
   31    30     1     0     0
SMALL
USER_CHARGES

@<TRIPOS>ATOM
      1 C1         -1.2914   -1.7420   -0.5494 CT        1 <0>       -0.09158
      2 C2          0.1697   -1.6109   -2.5770 CT        1 <0>       -0.09158
      3 C3         -0.2565    0.6749    3.4945 CT        1 <0>       -0.12473
      4 C4          2.2312    0.9889    3.4875 CT        1 <0>       -0.12473
      5 C5         -0.1033    0.4169   -1.0513 CT        1 <0>       -0.07713
      6 C6          0.9544    0.6571    1.2965 CT        1 <0>       -0.10263
      7 C7         -0.0218   -1.1224   -1.1404 CT        1 <0>       -0.06550
      8 C8         -0.2408    0.9698    0.3749 CT        1 <0>        0.15746
      9 C9          0.9347    1.2523    2.7195 CT        1 <0>        0.14851
     10 O1         -0.3733    2.3935    0.3165 OH        1 <0>       -0.60969
     11 O2          0.7338    2.6633    2.6282 OH        1 <0>       -0.60712
     12 H1         -2.1770   -1.4248   -1.1102 HC        1 <0>        0.03380
     13 H2         -1.2482   -2.8363   -0.5728 HC        1 <0>        0.03380
     14 H3         -1.4279   -1.4305    0.4916 HC        1 <0>        0.03380
     15 H4         -0.6586   -1.2807   -3.2131 HC        1 <0>        0.03380
     16 H5          0.1988   -2.7036   -2.6257 HC        1 <0>        0.03380
     17 H6          1.1003   -1.2247   -3.0067 HC        1 <0>        0.03380
     18 H7         -1.1947    0.8554    2.9571 HC        1 <0>        0.04398
     19 H8         -0.3626    1.1612    4.4711 HC        1 <0>        0.04398
     20 H9         -0.1495   -0.4028    3.6558 HC        1 <0>        0.04398
     21 H10         3.0934    1.3959    2.9463 HC        1 <0>        0.04398
     22 H11         2.4243   -0.0840    3.5917 HC        1 <0>        0.04398
     23 H12         2.2074    1.4419    4.4838 HC        1 <0>        0.04398
     24 H13         0.7854    0.8429   -1.5299 HC        1 <0>        0.05552
     25 H14        -0.9729    0.7425   -1.6373 HC        1 <0>        0.05552
     26 H15         1.0507   -0.4357    1.3671 HC        1 <0>        0.05989
     27 H16         1.8633    0.9949    0.7790 HC        1 <0>        0.05989
     28 H17         0.8268   -1.4742   -0.5410 HC        1 <0>        0.04300
     29 H18        -1.1582    0.5941    0.8373 H1        1 <0>        0.02543
     30 H19        -0.4565    2.6951    1.2327 HO        1 <0>        0.42012
     31 H20         0.6976    2.9936    3.5384 HO        1 <0>        0.40267
@<TRIPOS>BOND
     1    1    7 1
     2    2    7 1
     3    3    9 1
     4    4    9 1
     5    5    7 1
     6    5    8 1
     7    6    8 1
     8    6    9 1
     9    8   10 1
    10    9   11 1
    11    1   12 1
    12    1   13 1
    13    1   14 1
    14    2   15 1
    15    2   16 1
    16    2   17 1
    17    3   18 1
    18    3   19 1
    19    3   20 1
    20    4   21 1
    21    4   22 1
    22    4   23 1
    23    5   24 1
    24    5   25 1
    25    6   26 1
    26    6   27 1
    27    7   28 1
    28    8   29 1
    29   10   30 1
    30   11   31 1
@<TRIPOS>SUBSTRUCTURE
     1 <0>         1 GROUP 0 A     ****
