@<TRIPOS>MOLECULE
AlkEthOH_c625
   22    21     1     0     0
SMALL
USER_CHARGES

@<TRIPOS>ATOM
      1 C1          0.8152   -0.4299    0.5445 CT        1 <0>       -0.13280
      2 C2          3.3217   -1.3976   -3.7112 CT        1 <0>       -0.12530
      3 C3          3.9842   -2.7157   -1.6902 CT        1 <0>       -0.12530
      4 C4          2.0673   -1.0299   -1.5592 CT        1 <0>       -0.05946
      5 C5          1.5075   -1.5489   -0.2243 CT        1 <0>        0.14390
      6 C6          2.8129   -2.0681   -2.4299 CT        1 <0>        0.15632
      7 O1          0.5451   -2.5746   -0.4423 OH        1 <0>       -0.57290
      8 O2          1.9196   -3.1138   -2.8149 OH        1 <0>       -0.57195
      9 H1          0.0049    0.0143   -0.0416 HC        1 <0>        0.04168
     10 H2          0.4043   -0.7986    1.4909 HC        1 <0>        0.04168
     11 H3          1.5325    0.3578    0.7998 HC        1 <0>        0.04168
     12 H4          2.5078   -0.9221   -4.2682 HC        1 <0>        0.04125
     13 H5          3.8101   -2.1274   -4.3671 HC        1 <0>        0.04125
     14 H6          4.0768   -0.6371   -3.4812 HC        1 <0>        0.04125
     15 H7          3.6401   -3.2014   -0.7694 HC        1 <0>        0.04125
     16 H8          4.4850   -3.4675   -2.3084 HC        1 <0>        0.04125
     17 H9          4.7213   -1.9698   -1.3745 HC        1 <0>        0.04125
     18 H10         1.2225   -0.6435   -2.1462 HC        1 <0>        0.05590
     19 H11         2.7380   -0.1847   -1.3576 HC        1 <0>        0.05590
     20 H12         2.3057   -1.9566    0.4041 H1        1 <0>        0.02487
     21 H13         0.2490   -2.8689    0.4336 HO        1 <0>        0.38870
     22 H14         2.4348   -3.7257   -3.3617 HO        1 <0>        0.38958
@<TRIPOS>BOND
     1    1    5 1
     2    2    6 1
     3    3    6 1
     4    4    5 1
     5    4    6 1
     6    5    7 1
     7    6    8 1
     8    1    9 1
     9    1   10 1
    10    1   11 1
    11    2   12 1
    12    2   13 1
    13    2   14 1
    14    3   15 1
    15    3   16 1
    16    3   17 1
    17    4   18 1
    18    4   19 1
    19    5   20 1
    20    7   21 1
    21    8   22 1
@<TRIPOS>SUBSTRUCTURE
     1 <0>         1 GROUP 0 A     ****
