@<TRIPOS>MOLECULE
AlkEthOH_r445
   28    28     1     0     0
SMALL
USER_CHARGES

@<TRIPOS>ATOM
      1 C1         -1.2369    0.1240   -1.3930 CT        1 <0>       -0.06938
      2 C2         -1.2766   -1.4084   -1.4438 CT        1 <0>       -0.09836
      3 C3         -1.1721    0.7053    0.0273 CT        1 <0>       -0.06851
      4 C4          1.4007    0.2852    0.1966 CT        1 <0>       -0.10247
      5 C5         -0.0230   -2.1002   -0.9206 CT        1 <0>        0.13049
      6 C6          1.3236   -1.1220    0.7942 CT        1 <0>        0.13423
      7 C7          0.2126    1.2389    0.4906 CT        1 <0>       -0.04326
      8 C8          0.5020    2.5801   -0.2229 CT        1 <0>       -0.08982
      9 C9          0.1336    1.5271    2.0045 CT        1 <0>       -0.08982
     10 O1          0.1360   -1.8299    0.4671 OS        1 <0>       -0.41878
     11 H1         -0.4285    0.5000   -2.0277 HC        1 <0>        0.03662
     12 H2         -2.1675    0.4793   -1.8549 HC        1 <0>        0.03662
     13 H3         -2.1445   -1.7527   -0.8670 HC        1 <0>        0.04563
     14 H4         -1.4405   -1.7187   -2.4826 HC        1 <0>        0.04563
     15 H5         -1.8845    1.5416    0.0738 HC        1 <0>        0.04761
     16 H6         -1.5625   -0.0249    0.7470 HC        1 <0>        0.04761
     17 H7          2.3284    0.7460    0.5628 HC        1 <0>        0.04367
     18 H8          1.5332    0.2053   -0.8886 HC        1 <0>        0.04367
     19 H9         -0.1518   -3.1834   -1.0220 H1        1 <0>        0.03806
     20 H10         0.8593   -1.8289   -1.5109 H1        1 <0>        0.03806
     21 H11         2.1914   -1.7128    0.4766 H1        1 <0>        0.04374
     22 H12         1.3738   -1.0639    1.8863 H1        1 <0>        0.04374
     23 H13         1.4665    2.9484    0.1021 HC        1 <0>        0.03417
     24 H14        -0.2733    3.2892    0.0373 HC        1 <0>        0.03417
     25 H15         0.5091    2.4130   -1.2923 HC        1 <0>        0.03417
     26 H16         1.0926    1.9004    2.3436 HC        1 <0>        0.03417
     27 H17        -0.1105    0.6095    2.5265 HC        1 <0>        0.03417
     28 H18        -0.6354    2.2692    2.1832 HC        1 <0>        0.03417
@<TRIPOS>BOND
     1    1    2 1
     2    1    3 1
     3    2    5 1
     4    3    7 1
     5    4    6 1
     6    4    7 1
     7    5   10 1
     8    6   10 1
     9    7    8 1
    10    7    9 1
    11    1   11 1
    12    1   12 1
    13    2   13 1
    14    2   14 1
    15    3   15 1
    16    3   16 1
    17    4   17 1
    18    4   18 1
    19    5   19 1
    20    5   20 1
    21    6   21 1
    22    6   22 1
    23    8   23 1
    24    8   24 1
    25    8   25 1
    26    9   26 1
    27    9   27 1
    28    9   28 1
@<TRIPOS>SUBSTRUCTURE
     1 <0>         1 GROUP 0 A     ****
