@<TRIPOS>MOLECULE
AlkEthOH_c207
   25    24     1     0     0
SMALL
USER_CHARGES

@<TRIPOS>ATOM
      1 C1         -0.2558   -0.8433   -0.6530 CT        1 <0>       -0.12392
      2 C2          1.8710   -0.4114   -1.9100 CT        1 <0>       -0.12392
      3 C3         -1.3597   -2.1952   -3.2106 CT        1 <0>       -0.07590
      4 C4         -1.5134   -3.4217   -4.1100 CT        1 <0>       -0.08348
      5 C5          0.1199   -1.8756   -2.9589 CT        1 <0>       -0.06106
      6 C6         -2.9771   -3.7748   -4.3335 CT        1 <0>        0.13237
      7 C7          0.3648   -0.6616   -2.0399 CT        1 <0>        0.14910
      8 O1         -3.0509   -4.9093   -5.1859 OH        1 <0>       -0.60359
      9 O2         -0.2201    0.4906   -2.6506 OH        1 <0>       -0.59763
     10 H1         -1.3340   -1.0240   -0.7169 HC        1 <0>        0.04222
     11 H2         -0.1414    0.0679   -0.0540 HC        1 <0>        0.04222
     12 H3          0.2103   -1.6710   -0.1090 HC        1 <0>        0.04222
     13 H4          2.3431   -0.2773   -2.8887 HC        1 <0>        0.04222
     14 H5          2.3648   -1.2457   -1.3988 HC        1 <0>        0.04222
     15 H6          2.0672    0.4802   -1.3034 HC        1 <0>        0.04222
     16 H7         -1.8686   -2.3865   -2.2594 HC        1 <0>        0.04787
     17 H8         -1.8545   -1.3370   -3.6798 HC        1 <0>        0.04787
     18 H9         -1.0310   -3.2451   -5.0796 HC        1 <0>        0.05382
     19 H10        -0.9951   -4.2827   -3.6696 HC        1 <0>        0.05382
     20 H11         0.5895   -1.6787   -3.9321 HC        1 <0>        0.04791
     21 H12         0.6130   -2.7616   -2.5391 HC        1 <0>        0.04791
     22 H13        -3.5105   -2.9460   -4.8099 H1        1 <0>        0.02068
     23 H14        -3.4693   -4.0182   -3.3865 H1        1 <0>        0.02068
     24 H15        -3.9936   -5.1075   -5.3079 HO        1 <0>        0.39736
     25 H16        -0.0167    1.2390   -2.0704 HO        1 <0>        0.39679
@<TRIPOS>BOND
     1    1    7 1
     2    2    7 1
     3    3    4 1
     4    3    5 1
     5    4    6 1
     6    5    7 1
     7    6    8 1
     8    7    9 1
     9    1   10 1
    10    1   11 1
    11    1   12 1
    12    2   13 1
    13    2   14 1
    14    2   15 1
    15    3   16 1
    16    3   17 1
    17    4   18 1
    18    4   19 1
    19    5   20 1
    20    5   21 1
    21    6   22 1
    22    6   23 1
    23    8   24 1
    24    9   25 1
@<TRIPOS>SUBSTRUCTURE
     1 <0>         1 GROUP 0 A     ****
