@<TRIPOS>MOLECULE
AlkEthOH_c537
   27    26     1     0     0
SMALL
USER_CHARGES

@<TRIPOS>ATOM
      1 C1          1.7113    0.4351    3.6026 CT        1 <0>       -0.10459
      2 C2          1.2367   -1.9140    2.8226 CT        1 <0>       -0.10459
      3 C3         -0.2607   -1.3595   -2.3794 CT        1 <0>       -0.13567
      4 C4         -1.7838    0.7564    0.6912 CT        1 <0>       -0.11623
      5 C5          1.2011   -0.4360    2.4648 CT        1 <0>        0.14881
      6 C6          0.1908   -0.2103   -1.4924 CT        1 <0>        0.35365
      7 C7         -0.2908    0.4184    0.8006 CT        1 <0>        0.53363
      8 O1          1.5576    0.0474   -1.7968 OH        1 <0>       -0.59831
      9 O2          0.4775    1.6089    0.6030 OH        1 <0>       -0.63051
     10 O3         -0.1345   -0.0620    2.1517 OS        1 <0>       -0.45290
     11 O4          0.0117   -0.6251   -0.1397 OS        1 <0>       -0.42341
     12 H1          1.1233    0.2837    4.5130 HC        1 <0>        0.04097
     13 H2          2.7593    0.2027    3.8201 HC        1 <0>        0.04097
     14 H3          1.6742    1.4966    3.3340 HC        1 <0>        0.04097
     15 H4          0.6375   -2.1214    3.7144 HC        1 <0>        0.04097
     16 H5          2.2666   -2.2360    3.0102 HC        1 <0>        0.04097
     17 H6          0.8606   -2.5284    1.9971 HC        1 <0>        0.04097
     18 H7          0.3196   -2.2646   -2.1656 HC        1 <0>        0.05275
     19 H8         -1.3148   -1.5975   -2.2050 HC        1 <0>        0.05275
     20 H9         -0.1147   -1.1195   -3.4374 HC        1 <0>        0.05275
     21 H10        -2.4176   -0.1237    0.8352 HC        1 <0>        0.05908
     22 H11        -2.0175    1.1669   -0.2978 HC        1 <0>        0.05908
     23 H12        -2.0698    1.5029    1.4403 HC        1 <0>        0.05908
     24 H13         1.8086   -0.2617    1.5706 H1        1 <0>        0.08217
     25 H14        -0.4063    0.6758   -1.7299 H2        1 <0>        0.03899
     26 H15         1.6002    0.2829   -2.7390 HO        1 <0>        0.40333
     27 H16         0.2376    2.2597    1.2831 HO        1 <0>        0.42432
@<TRIPOS>BOND
     1    1    5 1
     2    2    5 1
     3    3    6 1
     4    4    7 1
     5    5   10 1
     6    6    8 1
     7    6   11 1
     8    7    9 1
     9    7   10 1
    10    7   11 1
    11    1   12 1
    12    1   13 1
    13    1   14 1
    14    2   15 1
    15    2   16 1
    16    2   17 1
    17    3   18 1
    18    3   19 1
    19    3   20 1
    20    4   21 1
    21    4   22 1
    22    4   23 1
    23    5   24 1
    24    6   25 1
    25    8   26 1
    26    9   27 1
@<TRIPOS>SUBSTRUCTURE
     1 <0>         1 GROUP 0 A     ****
