@<TRIPOS>MOLECULE
AlkEthOH_r981
   25    25     1     0     0
SMALL
USER_CHARGES

@<TRIPOS>ATOM
      1 C1         -1.0945    1.2316   -1.1846 CT        1 <0>       -0.11047
      2 C2          0.3096    1.4267   -0.6172 CT        1 <0>       -0.07016
      3 C3         -2.1413    0.8614   -0.1411 CT        1 <0>        0.13022
      4 C4         -0.9502   -1.0986    0.5258 CT        1 <0>        0.13084
      5 C5          1.1035    0.1089   -0.4799 CT        1 <0>       -0.05725
      6 C6          0.5633   -0.8520    0.6177 CT        1 <0>       -0.08858
      7 C7          2.5797    0.4604   -0.2312 CT        1 <0>       -0.09229
      8 C8          1.2826   -2.2076    0.5808 CT        1 <0>       -0.09203
      9 O1         -1.6526    0.0693    0.9297 OS        1 <0>       -0.41670
     10 H1         -1.4224    2.1520   -1.6835 HC        1 <0>        0.04320
     11 H2         -1.0692    0.4648   -1.9687 HC        1 <0>        0.04320
     12 H3          0.8477    2.0814   -1.3153 HC        1 <0>        0.04681
     13 H4          0.2730    1.9605    0.3403 HC        1 <0>        0.04681
     14 H5         -2.5386    1.7781    0.3087 H1        1 <0>        0.04205
     15 H6         -2.9887    0.3512   -0.6136 H1        1 <0>        0.04205
     16 H7         -1.2598   -1.4470   -0.4670 H1        1 <0>        0.04388
     17 H8         -1.2350   -1.8807    1.2388 H1        1 <0>        0.04388
     18 H9          1.0560   -0.4113   -1.4466 HC        1 <0>        0.04253
     19 H10         0.7641   -0.3884    1.5935 HC        1 <0>        0.06435
     20 H11         2.6700    0.9779    0.7184 HC        1 <0>        0.03430
     21 H12         2.9353    1.1015   -1.0313 HC        1 <0>        0.03430
     22 H13         3.1663   -0.4523   -0.2067 HC        1 <0>        0.03430
     23 H14         1.0996   -2.6879   -0.3761 HC        1 <0>        0.03492
     24 H15         0.9061   -2.8383    1.3810 HC        1 <0>        0.03492
     25 H16         2.3499   -2.0541    0.7114 HC        1 <0>        0.03492
@<TRIPOS>BOND
     1    1    2 1
     2    1    3 1
     3    2    5 1
     4    3    9 1
     5    4    6 1
     6    4    9 1
     7    5    6 1
     8    5    7 1
     9    6    8 1
    10    1   10 1
    11    1   11 1
    12    2   12 1
    13    2   13 1
    14    3   14 1
    15    3   15 1
    16    4   16 1
    17    4   17 1
    18    5   18 1
    19    6   19 1
    20    7   20 1
    21    7   21 1
    22    7   22 1
    23    8   23 1
    24    8   24 1
    25    8   25 1
@<TRIPOS>SUBSTRUCTURE
     1 <0>         1 GROUP 0 A     ****
