@<TRIPOS>MOLECULE
AlkEthOH_r385
   29    29     1     0     0
SMALL
USER_CHARGES

@<TRIPOS>ATOM
      1 C1         -1.2313    1.6080   -1.2672 CT        1 <0>       -0.06983
      2 C2         -1.5480    0.1966   -1.7768 CT        1 <0>       -0.07030
      3 C3         -0.1566    1.7303   -0.1820 CT        1 <0>       -0.08537
      4 C4         -0.4023   -0.4854   -2.5346 CT        1 <0>       -0.10240
      5 C5         -0.5258    1.0382    1.1399 CT        1 <0>       -0.09483
      6 C6          0.3370   -1.5484   -1.7241 CT        1 <0>        0.12809
      7 C7          0.3992   -1.3101    0.6528 CT        1 <0>        0.14566
      8 C8          0.4123   -0.1016    1.6015 CT        1 <0>        0.13924
      9 C9         -0.0038   -0.5648    3.0046 CT        1 <0>       -0.12871
     10 O1          0.9667   -0.9495   -0.6026 OS        1 <0>       -0.40212
     11 O2          1.7526    0.3868    1.6884 OH        1 <0>       -0.57461
     12 H1         -0.9326    2.2314   -2.1197 HC        1 <0>        0.03490
     13 H2         -2.1615    2.0483   -0.8850 HC        1 <0>        0.03490
     14 H3         -1.9252   -0.4375   -0.9684 HC        1 <0>        0.03428
     15 H4         -2.3847    0.3037   -2.4803 HC        1 <0>        0.03428
     16 H5          0.8184    1.4196   -0.5662 HC        1 <0>        0.05824
     17 H6         -0.0439    2.8029    0.0279 HC        1 <0>        0.05824
     18 H7         -0.8159   -0.9771   -3.4237 HC        1 <0>        0.04838
     19 H8          0.3096    0.2687   -2.8907 HC        1 <0>        0.04838
     20 H9         -0.4999    1.8188    1.9137 HC        1 <0>        0.03998
     21 H10        -1.5615    0.6781    1.1146 HC        1 <0>        0.03998
     22 H11        -0.3292   -2.3729   -1.4439 H1        1 <0>        0.04064
     23 H12         1.1288   -1.9763   -2.3485 H1        1 <0>        0.04064
     24 H13         1.0184   -2.1206    1.0538 H1        1 <0>        0.03982
     25 H14        -0.6260   -1.6851    0.5502 H1        1 <0>        0.03982
     26 H15         0.6539   -1.3655    3.3308 HC        1 <0>        0.04289
     27 H16        -1.0280   -0.9254    2.9773 HC        1 <0>        0.04289
     28 H17         0.0690    0.2690    3.6970 HC        1 <0>        0.04289
     29 H18         1.7382    1.1075    2.3354 HO        1 <0>        0.39403
@<TRIPOS>BOND
     1    1    2 1
     2    1    3 1
     3    2    4 1
     4    3    5 1
     5    4    6 1
     6    5    8 1
     7    6   10 1
     8    7    8 1
     9    7   10 1
    10    8    9 1
    11    8   11 1
    12    1   12 1
    13    1   13 1
    14    2   14 1
    15    2   15 1
    16    3   16 1
    17    3   17 1
    18    4   18 1
    19    4   19 1
    20    5   20 1
    21    5   21 1
    22    6   22 1
    23    6   23 1
    24    7   24 1
    25    7   25 1
    26    9   26 1
    27    9   27 1
    28    9   28 1
    29   11   29 1
@<TRIPOS>SUBSTRUCTURE
     1 <0>         1 GROUP 0 A     ****
