@<TRIPOS>MOLECULE
AlkEthOH_r714
   28    28     1     0     0
SMALL
USER_CHARGES

@<TRIPOS>ATOM
      1 C1         -0.6169    2.4829   -0.8560 CT        1 <0>       -0.11130
      2 C2         -0.5158    1.5935   -2.0994 CT        1 <0>        0.13694
      3 C3         -0.8379    1.6940    0.4319 CT        1 <0>        0.13812
      4 C4         -0.3216   -0.7569   -1.7127 CT        1 <0>        0.08477
      5 C5          0.3302   -1.5537   -0.5828 CT        1 <0>        0.33271
      6 C6          0.2852   -0.1933    1.4605 CT        1 <0>        0.35891
      7 C7          1.7006   -0.5782    1.9144 CT        1 <0>       -0.11008
      8 C8         -0.5863   -0.0705    2.7202 CT        1 <0>       -0.11008
      9 O1          0.3551    0.4919   -1.8624 OS        1 <0>       -0.40353
     10 O2          0.3929    1.0635    0.7861 OS        1 <0>       -0.43501
     11 O3         -0.2938   -1.2369    0.6636 OS        1 <0>       -0.49364
     12 O4          0.1083   -2.9364   -0.8634 OH        1 <0>       -0.59804
     13 H1          0.3194    3.0472   -0.7618 HC        1 <0>        0.05960
     14 H2         -1.4277    3.2047   -1.0024 HC        1 <0>        0.05960
     15 H3         -1.5092    1.2669   -2.4291 H1        1 <0>        0.03959
     16 H4         -0.0897    2.1815   -2.9196 H1        1 <0>        0.03959
     17 H5         -1.1084    2.3791    1.2422 H1        1 <0>        0.03429
     18 H6         -1.6516    0.9733    0.2978 H1        1 <0>        0.03429
     19 H7         -0.2309   -1.2877   -2.6669 H1        1 <0>        0.05062
     20 H8         -1.3901   -0.6266   -1.5032 H1        1 <0>        0.05062
     21 H9          1.4105   -1.3874   -0.5625 H2        1 <0>        0.09965
     22 H10         2.3449   -0.6736    1.0454 HC        1 <0>        0.05471
     23 H11         1.6644   -1.5250    2.4452 HC        1 <0>        0.05471
     24 H12         2.0906    0.1926    2.5728 HC        1 <0>        0.05471
     25 H13        -1.5973    0.2017    2.4331 HC        1 <0>        0.05471
     26 H14        -0.1738    0.6954    3.3697 HC        1 <0>        0.05471
     27 H15        -0.5999   -1.0222    3.2424 HC        1 <0>        0.05471
     28 H16        -0.8524   -3.0592   -0.8886 HO        1 <0>        0.41412
@<TRIPOS>BOND
     1    1    2 1
     2    1    3 1
     3    2    9 1
     4    3   10 1
     5    4    5 1
     6    4    9 1
     7    5   11 1
     8    5   12 1
     9    6    7 1
    10    6    8 1
    11    6   10 1
    12    6   11 1
    13    1   13 1
    14    1   14 1
    15    2   15 1
    16    2   16 1
    17    3   17 1
    18    3   18 1
    19    4   19 1
    20    4   20 1
    21    5   21 1
    22    7   22 1
    23    7   23 1
    24    7   24 1
    25    8   25 1
    26    8   26 1
    27    8   27 1
    28   12   28 1
@<TRIPOS>SUBSTRUCTURE
     1 <0>         1 GROUP 0 A     ****
