@<TRIPOS>MOLECULE
AlkEthOH_r996
   21    21     1     0     0
SMALL
USER_CHARGES

@<TRIPOS>ATOM
      1 C1          1.7180    0.1775   -0.4830 CT        1 <0>       -0.14518
      2 C2          1.3345   -1.2430   -0.0933 CT        1 <0>        0.14078
      3 C3          0.7496    1.1711    0.1577 CT        1 <0>        0.15133
      4 C4         -0.9099   -0.5294    0.1782 CT        1 <0>        0.52232
      5 C5          1.0077    2.5901   -0.3273 CT        1 <0>       -0.09077
      6 C6         -2.2932   -0.8058   -0.4136 CT        1 <0>       -0.08784
      7 O1         -0.0301   -1.4896   -0.4264 OS        1 <0>       -0.42389
      8 O2         -0.5929    0.8218   -0.1902 OS        1 <0>       -0.46721
      9 O3         -0.9837   -0.6927    1.5980 OH        1 <0>       -0.63882
     10 H1          2.7522    0.3908   -0.1937 HC        1 <0>        0.05983
     11 H2          1.6455    0.2621   -1.5750 HC        1 <0>        0.05983
     12 H3          1.9495   -1.9623   -0.6431 H1        1 <0>        0.06004
     13 H4          1.4950   -1.4242    0.9751 H1        1 <0>        0.06004
     14 H5          0.8516    1.1543    1.2510 H1        1 <0>        0.05027
     15 H6          0.9131    2.6376   -1.4126 HC        1 <0>        0.04585
     16 H7          2.0137    2.9042   -0.0470 HC        1 <0>        0.04585
     17 H8          0.2868    3.2754    0.1199 HC        1 <0>        0.04585
     18 H9         -3.0183   -0.1089    0.0031 HC        1 <0>        0.06301
     19 H10        -2.5989   -1.8233   -0.1766 HC        1 <0>        0.06301
     20 H11        -2.2623   -0.6848   -1.4951 HC        1 <0>        0.06301
     21 H12        -1.6384   -0.0517    1.9131 HO        1 <0>        0.42269
@<TRIPOS>BOND
     1    1    2 1
     2    1    3 1
     3    2    7 1
     4    3    5 1
     5    3    8 1
     6    4    6 1
     7    4    7 1
     8    4    8 1
     9    4    9 1
    10    1   10 1
    11    1   11 1
    12    2   12 1
    13    2   13 1
    14    3   14 1
    15    5   15 1
    16    5   16 1
    17    5   17 1
    18    6   18 1
    19    6   19 1
    20    6   20 1
    21    9   21 1
@<TRIPOS>SUBSTRUCTURE
     1 <0>         1 GROUP 0 A     ****
