@<TRIPOS>MOLECULE
AlkEthOH_c1219
   23    22     1     0     0
SMALL
USER_CHARGES

@<TRIPOS>ATOM
      1 C1         -3.2950   -1.0718   -1.5833 CT        1 <0>       -0.09870
      2 C2          0.2406    0.6109    3.3431 CT        1 <0>       -0.09870
      3 C3          1.3325   -0.8319   -0.6670 CT        1 <0>       -0.11467
      4 C4         -2.2893   -0.2455   -0.8104 CT        1 <0>        0.14388
      5 C5          0.5852    0.7923    1.8802 CT        1 <0>        0.14388
      6 C6          0.0470   -0.0730   -0.3097 CT        1 <0>        0.53426
      7 O1          0.1415    1.2686   -0.8003 OH        1 <0>       -0.65060
      8 O2         -0.9914   -0.7917   -1.0081 OS        1 <0>       -0.44572
      9 O3         -0.1742   -0.1271    1.1086 OS        1 <0>       -0.44572
     10 H1         -3.0703   -1.0590   -2.6535 HC        1 <0>        0.04447
     11 H2         -3.2921   -2.1094   -1.2338 HC        1 <0>        0.04447
     12 H3         -4.3089   -0.6873   -1.4306 HC        1 <0>        0.04447
     13 H4         -0.8217    0.8007    3.5202 HC        1 <0>        0.04447
     14 H5          0.4778   -0.4061    3.6723 HC        1 <0>        0.04447
     15 H6          0.8297    1.2925    3.9656 HC        1 <0>        0.04447
     16 H7          1.3105   -1.8672   -0.3124 HC        1 <0>        0.06017
     17 H8          2.2055   -0.3532   -0.2081 HC        1 <0>        0.06017
     18 H9          1.4886   -0.8462   -1.7512 HC        1 <0>        0.06017
     19 H10        -2.5196   -0.2625    0.2591 H1        1 <0>        0.03972
     20 H11        -2.2928    0.7908   -1.1614 H1        1 <0>        0.03972
     21 H12         1.6489    0.6011    1.7099 H1        1 <0>        0.03972
     22 H13         0.3468    1.8086    1.5527 H1        1 <0>        0.03972
     23 H14         0.2538    1.2481   -1.7650 HO        1 <0>        0.42588
@<TRIPOS>BOND
     1    1    4 1
     2    2    5 1
     3    3    6 1
     4    4    8 1
     5    5    9 1
     6    6    7 1
     7    6    8 1
     8    6    9 1
     9    1   10 1
    10    1   11 1
    11    1   12 1
    12    2   13 1
    13    2   14 1
    14    2   15 1
    15    3   16 1
    16    3   17 1
    17    3   18 1
    18    4   19 1
    19    4   20 1
    20    5   21 1
    21    5   22 1
    22    7   23 1
@<TRIPOS>SUBSTRUCTURE
     1 <0>         1 GROUP 0 A     ****
