@<TRIPOS>MOLECULE
AlkEthOH_r1066
   20    20     1     0     0
SMALL
USER_CHARGES

@<TRIPOS>ATOM
      1 C1         -0.5264   -0.2894   -0.9165 CT        1 <0>       -0.15122
      2 C2         -0.3418   -1.7722   -1.1998 CT        1 <0>        0.13062
      3 C3         -0.4786   -1.4525   -3.5449 CT        1 <0>        0.12523
      4 C4         -0.6727    0.0601   -3.4073 CT        1 <0>       -0.09377
      5 C5         -0.0398    0.5510   -2.0958 CT        1 <0>        0.14413
      6 C6         -0.1061    0.7968   -4.6194 CT        1 <0>       -0.08695
      7 O1         -1.0061   -2.1386   -2.4085 OS        1 <0>       -0.41230
      8 O2         -0.3583    1.9190   -1.8647 OH        1 <0>       -0.59499
      9 H1         -1.5895   -0.0784   -0.7429 HC        1 <0>        0.05750
     10 H2         -0.0003   -0.0008    0.0005 HC        1 <0>        0.05750
     11 H3          0.7197   -2.0369   -1.2707 H1        1 <0>        0.04823
     12 H4         -0.7764   -2.3639   -0.3880 H1        1 <0>        0.04823
     13 H5         -1.0123   -1.8232   -4.4266 H1        1 <0>        0.04961
     14 H6          0.5793   -1.7151   -3.6676 H1        1 <0>        0.04961
     15 H7         -1.7488    0.2744   -3.3604 HC        1 <0>        0.07574
     16 H8          1.0598    0.4711   -2.1607 H1        1 <0>        0.03239
     17 H9          0.9629    0.6075   -4.6989 HC        1 <0>        0.04039
     18 H10        -0.2723    1.8670   -4.5106 HC        1 <0>        0.04039
     19 H11        -0.5990    0.4488   -5.5254 HC        1 <0>        0.04039
     20 H12         0.0954    2.1755   -1.0464 HO        1 <0>        0.39927
@<TRIPOS>BOND
     1    1    2 1
     2    1    5 1
     3    2    7 1
     4    3    4 1
     5    3    7 1
     6    4    5 1
     7    4    6 1
     8    5    8 1
     9    1    9 1
    10    1   10 1
    11    2   11 1
    12    2   12 1
    13    3   13 1
    14    3   14 1
    15    4   15 1
    16    5   16 1
    17    6   17 1
    18    6   18 1
    19    6   19 1
    20    8   20 1
@<TRIPOS>SUBSTRUCTURE
     1 <0>         1 GROUP 0 A     ****
