@<TRIPOS>MOLECULE
AlkEthOH_r82
   23    23     1     0     0
SMALL
USER_CHARGES

@<TRIPOS>ATOM
      1 C1         -0.5051   -0.0172    2.2286 CT        1 <0>       -0.10381
      2 C2         -1.8933   -0.0958    1.5796 CT        1 <0>       -0.10378
      3 C3          0.4509   -1.1335    1.8078 CT        1 <0>        0.15185
      4 C4         -2.0279    0.7109    0.2897 CT        1 <0>        0.15185
      5 C5          1.5400   -0.1146   -0.0730 CT        1 <0>        0.54318
      6 C6         -0.2721    0.8790   -1.3160 CT        1 <0>        0.54318
      7 O1          0.7231   -1.1824    0.4132 OS        1 <0>       -0.47378
      8 O2         -1.3307    0.0803   -0.7794 OS        1 <0>       -0.47378
      9 O3          0.8189    1.0783   -0.4074 OS        1 <0>       -0.51349
     10 O4          2.3434   -0.5675   -1.1652 OH        1 <0>       -0.60924
     11 O5          0.1528    0.3624   -2.5778 OH        1 <0>       -0.60924
     12 H1         -0.0590    0.9661    2.0462 HC        1 <0>        0.05352
     13 H2         -0.6348   -0.0992    3.3153 HC        1 <0>        0.05352
     14 H3         -2.1656   -1.1427    1.4020 HC        1 <0>        0.05352
     15 H4         -2.6189    0.3106    2.2952 HC        1 <0>        0.05352
     16 H5          1.3922   -1.0606    2.3656 H1        1 <0>        0.04706
     17 H6          0.0082   -2.0995    2.0756 H1        1 <0>        0.04706
     18 H7         -3.0847    0.7364    0.0023 H1        1 <0>        0.04706
     19 H8         -1.7116    1.7495    0.4448 H1        1 <0>        0.04706
     20 H9          2.2460    0.1772    0.7139 H3        1 <0>        0.10908
     21 H10        -0.6789    1.8762   -1.5237 H3        1 <0>        0.10908
     22 H11         2.8908   -1.2880   -0.8197 HO        1 <0>        0.43829
     23 H12        -0.6219    0.3898   -3.1591 HO        1 <0>        0.43829
@<TRIPOS>BOND
     1    1    2 1
     2    1    3 1
     3    2    4 1
     4    3    7 1
     5    4    8 1
     6    5    7 1
     7    5    9 1
     8    5   10 1
     9    6    8 1
    10    6    9 1
    11    6   11 1
    12    1   12 1
    13    1   13 1
    14    2   14 1
    15    2   15 1
    16    3   16 1
    17    3   17 1
    18    4   18 1
    19    4   19 1
    20    5   20 1
    21    6   21 1
    22   10   22 1
    23   11   23 1
@<TRIPOS>SUBSTRUCTURE
     1 <0>         1 GROUP 0 A     ****
