@<TRIPOS>MOLECULE
AlkEthOH_c342
   19    18     1     0     0
SMALL
USER_CHARGES

@<TRIPOS>ATOM
      1 C1          0.7685   -0.0874   -0.7749 CT        1 <0>       -0.09206
      2 C2          1.8396   -2.0830    0.2797 CT        1 <0>       -0.09206
      3 C3         -0.6690   -1.9742   -2.7113 CT        1 <0>        0.10155
      4 C4          1.1843   -1.5448   -0.9971 CT        1 <0>       -0.09946
      5 C5          0.0121   -2.4506   -1.4287 CT        1 <0>        0.13744
      6 O1         -1.4327   -3.0377   -3.2735 OH        1 <0>       -0.59045
      7 O2         -0.9627   -2.5038   -0.3859 OH        1 <0>       -0.58082
      8 H1          0.0099   -0.0191    0.0126 HC        1 <0>        0.03756
      9 H2          0.3472    0.3556   -1.6833 HC        1 <0>        0.03756
     10 H3          1.6186    0.5246   -0.4588 HC        1 <0>        0.03756
     11 H4          1.1259   -2.0874    1.1103 HC        1 <0>        0.03756
     12 H5          2.7035   -1.4790    0.5765 HC        1 <0>        0.03756
     13 H6          2.1842   -3.1123    0.1333 HC        1 <0>        0.03756
     14 H7         -1.3665   -1.1548   -2.5141 H1        1 <0>        0.02508
     15 H8          0.0610   -1.6500   -3.4592 H1        1 <0>        0.02508
     16 H9          1.9421   -1.5636   -1.7910 HC        1 <0>        0.05341
     17 H10         0.3789   -3.4748   -1.5695 H1        1 <0>        0.09537
     18 H11        -1.8424   -2.6877   -4.0798 HO        1 <0>        0.39934
     19 H12        -1.3079   -1.6038   -0.2888 HO        1 <0>        0.39222
@<TRIPOS>BOND
     1    1    4 1
     2    2    4 1
     3    3    5 1
     4    3    6 1
     5    4    5 1
     6    5    7 1
     7    1    8 1
     8    1    9 1
     9    1   10 1
    10    2   11 1
    11    2   12 1
    12    2   13 1
    13    3   14 1
    14    3   15 1
    15    4   16 1
    16    5   17 1
    17    6   18 1
    18    7   19 1
@<TRIPOS>SUBSTRUCTURE
     1 <0>         1 GROUP 0 A     ****
