@<TRIPOS>MOLECULE
AlkEthOH_r141
   19    19     1     0     0
SMALL
USER_CHARGES

@<TRIPOS>ATOM
      1 C1         -0.9921   -0.1211   -1.4040 CT        1 <0>       -0.18248
      2 C2         -1.1572    1.3056   -0.9022 CT        1 <0>        0.13212
      3 C3          0.6741    1.4642    0.6396 CT        1 <0>        0.07340
      4 C4         -0.9086   -1.1648   -0.2850 CT        1 <0>        0.34756
      5 C5          0.9811   -0.0293    0.6845 CT        1 <0>        0.30947
      6 O1          0.1122    1.8804   -0.6002 OS        1 <0>       -0.40832
      7 O2         -0.2380   -0.7321    0.8932 OS        1 <0>       -0.44759
      8 O3         -0.3226   -2.3506   -0.8182 OH        1 <0>       -0.61413
      9 O4          1.8511   -0.2523    1.7923 OH        1 <0>       -0.57984
     10 H1         -1.8352   -0.3907   -2.0523 HC        1 <0>        0.06736
     11 H2         -0.0979   -0.1864   -2.0376 HC        1 <0>        0.06736
     12 H3         -1.5807    1.9124   -1.7096 H1        1 <0>        0.05619
     13 H4         -1.8384    1.3807   -0.0469 H1        1 <0>        0.05619
     14 H5          0.0009    1.7562    1.4552 H1        1 <0>        0.06395
     15 H6          1.5989    2.0358    0.7761 H1        1 <0>        0.06395
     16 H7         -1.9303   -1.4182    0.0211 H2        1 <0>        0.06697
     17 H8          1.4927   -0.3663   -0.2247 H2        1 <0>        0.10271
     18 H9         -0.9038   -2.6462   -1.5356 HO        1 <0>        0.41041
     19 H10         1.3721    0.0420    2.5822 HO        1 <0>        0.41472
@<TRIPOS>BOND
     1    1    2 1
     2    1    4 1
     3    2    6 1
     4    3    5 1
     5    3    6 1
     6    4    7 1
     7    4    8 1
     8    5    7 1
     9    5    9 1
    10    1   10 1
    11    1   11 1
    12    2   12 1
    13    2   13 1
    14    3   14 1
    15    3   15 1
    16    4   16 1
    17    5   17 1
    18    8   18 1
    19    9   19 1
@<TRIPOS>SUBSTRUCTURE
     1 <0>         1 GROUP 0 A     ****
