@<TRIPOS>MOLECULE
AlkEthOH_c305
   31    30     1     0     0
SMALL
USER_CHARGES

@<TRIPOS>ATOM
      1 C1         -1.7022    1.1813    0.2428 CT        1 <0>       -0.09047
      2 C2         -2.1392   -1.0209   -0.8474 CT        1 <0>       -0.09047
      3 C3          3.0167   -0.9513    0.3491 CT        1 <0>       -0.10647
      4 C4          2.7101    0.5053    2.3723 CT        1 <0>       -0.10647
      5 C5          1.2946   -1.5494    2.0844 CT        1 <0>       -0.10647
      6 C6          0.4836    0.2994   -1.7145 CT        1 <0>       -0.13379
      7 C7         -1.2049   -0.2673    0.1065 CT        1 <0>       -0.09318
      8 C8          2.0139   -0.4085    1.3661 CT        1 <0>        0.18708
      9 C9          0.2917   -0.3253   -0.3250 CT        1 <0>        0.36872
     10 O1          0.6417   -1.7139   -0.3895 OH        1 <0>       -0.62289
     11 O2          1.0484    0.3715    0.6765 OS        1 <0>       -0.44494
     12 H1         -1.6472    1.7131   -0.7124 HC        1 <0>        0.03694
     13 H2         -1.0843    1.7345    0.9586 HC        1 <0>        0.03694
     14 H3         -2.7380    1.2203    0.5960 HC        1 <0>        0.03694
     15 H4         -2.0961   -0.6114   -1.8619 HC        1 <0>        0.03694
     16 H5         -3.1776   -0.9537   -0.5043 HC        1 <0>        0.03694
     17 H6         -1.8871   -2.0843   -0.8956 HC        1 <0>        0.03694
     18 H7          2.5209   -1.6078   -0.3749 HC        1 <0>        0.04338
     19 H8          3.5142   -0.1436   -0.1976 HC        1 <0>        0.04338
     20 H9          3.7839   -1.5590    0.8425 HC        1 <0>        0.04338
     21 H10         1.9942    0.8971    3.1039 HC        1 <0>        0.04338
     22 H11         3.1471    1.3765    1.8710 HC        1 <0>        0.04338
     23 H12         3.5052   -0.0193    2.9118 HC        1 <0>        0.04338
     24 H13         0.5752   -1.1602    2.8139 HC        1 <0>        0.04338
     25 H14         0.7586   -2.1946    1.3808 HC        1 <0>        0.04338
     26 H15         2.0053   -2.1641    2.6485 HC        1 <0>        0.04338
     27 H16         1.5342    0.2619   -2.0241 HC        1 <0>        0.04976
     28 H17        -0.0779   -0.2537   -2.4752 HC        1 <0>        0.04976
     29 H18         0.1827    1.3514   -1.7335 HC        1 <0>        0.04976
     30 H19        -1.2937   -0.7235    1.1020 HC        1 <0>        0.06513
     31 H20         0.0621   -2.1490   -1.0366 HO        1 <0>        0.41288
@<TRIPOS>BOND
     1    1    7 1
     2    2    7 1
     3    3    8 1
     4    4    8 1
     5    5    8 1
     6    6    9 1
     7    7    9 1
     8    8   11 1
     9    9   10 1
    10    9   11 1
    11    1   12 1
    12    1   13 1
    13    1   14 1
    14    2   15 1
    15    2   16 1
    16    2   17 1
    17    3   18 1
    18    3   19 1
    19    3   20 1
    20    4   21 1
    21    4   22 1
    22    4   23 1
    23    5   24 1
    24    5   25 1
    25    5   26 1
    26    6   27 1
    27    6   28 1
    28    6   29 1
    29    7   30 1
    30   10   31 1
@<TRIPOS>SUBSTRUCTURE
     1 <0>         1 GROUP 0 A     ****
