@<TRIPOS>MOLECULE
AlkEthOH_c386
   33    32     1     0     0
SMALL
USER_CHARGES

@<TRIPOS>ATOM
      1 C1          1.4775   -2.0194   -1.4816 CT        1 <0>       -0.09241
      2 C2         -0.8910   -2.7445   -1.1620 CT        1 <0>       -0.09241
      3 C3          0.4306    2.9148    2.0296 CT        1 <0>       -0.10596
      4 C4         -1.7662    1.7326    1.6710 CT        1 <0>       -0.10596
      5 C5          0.5788    1.2465   -2.2329 CT        1 <0>       -0.10237
      6 C6          1.9217    0.8707   -0.1563 CT        1 <0>       -0.10237
      7 C7         -0.2724   -0.3947   -0.5266 CT        1 <0>       -0.09922
      8 C8          0.0204   -1.5586   -1.5011 CT        1 <0>       -0.06130
      9 C9         -0.2938    1.7972    1.2947 CT        1 <0>        0.13711
     10 C10         0.5076    0.9241   -0.7347 CT        1 <0>        0.15996
     11 O1         -0.1778    2.0061   -0.1039 OS        1 <0>       -0.42871
     12 H1          1.7794   -2.3458   -0.4826 HC        1 <0>        0.03383
     13 H2          2.1485   -1.2002   -1.7625 HC        1 <0>        0.03383
     14 H3          1.6435   -2.8450   -2.1816 HC        1 <0>        0.03383
     15 H4         -0.6936   -3.1107   -0.1488 HC        1 <0>        0.03383
     16 H5         -1.9454   -2.4518   -1.2086 HC        1 <0>        0.03383
     17 H6         -0.7388   -3.5753   -1.8595 HC        1 <0>        0.03383
     18 H7         -0.0246    3.8877    1.8206 HC        1 <0>        0.04057
     19 H8          0.4031    2.7404    3.1106 HC        1 <0>        0.04057
     20 H9          1.4877    2.9539    1.7446 HC        1 <0>        0.04057
     21 H10        -2.2737    2.6773    1.4536 HC        1 <0>        0.04057
     22 H11        -1.8775    1.5131    2.7383 HC        1 <0>        0.04057
     23 H12        -2.2763    0.9282    1.1298 HC        1 <0>        0.04057
     24 H13        -0.4180    1.2934   -2.6838 HC        1 <0>        0.04361
     25 H14         1.0815    2.2057   -2.4029 HC        1 <0>        0.04361
     26 H15         1.1668    0.4916   -2.7676 HC        1 <0>        0.04361
     27 H16         1.9093    0.6421    0.9145 HC        1 <0>        0.04361
     28 H17         2.4147    1.8458   -0.2463 HC        1 <0>        0.04361
     29 H18         2.5383    0.1254   -0.6687 HC        1 <0>        0.04361
     30 H19        -1.3464   -0.1708   -0.5872 HC        1 <0>        0.04741
     31 H20        -0.0870   -0.7533    0.4955 HC        1 <0>        0.04741
     32 H21        -0.2283   -1.2440   -2.5215 HC        1 <0>        0.05145
     33 H22         0.1844    0.8392    1.5240 H1        1 <0>        0.03931
@<TRIPOS>BOND
     1    1    8 1
     2    2    8 1
     3    3    9 1
     4    4    9 1
     5    5   10 1
     6    6   10 1
     7    7    8 1
     8    7   10 1
     9    9   11 1
    10   10   11 1
    11    1   12 1
    12    1   13 1
    13    1   14 1
    14    2   15 1
    15    2   16 1
    16    2   17 1
    17    3   18 1
    18    3   19 1
    19    3   20 1
    20    4   21 1
    21    4   22 1
    22    4   23 1
    23    5   24 1
    24    5   25 1
    25    5   26 1
    26    6   27 1
    27    6   28 1
    28    6   29 1
    29    7   30 1
    30    7   31 1
    31    8   32 1
    32    9   33 1
@<TRIPOS>SUBSTRUCTURE
     1 <0>         1 GROUP 0 A     ****
