@<TRIPOS>MOLECULE
AlkEthOH_c777
   20    19     1     0     0
SMALL
USER_CHARGES

@<TRIPOS>ATOM
      1 C1         -0.4238    0.8108    0.6004 CT        1 <0>       -0.12490
      2 C2         -0.5369    3.8508    3.7560 CT        1 <0>       -0.12321
      3 C3         -0.8331   -0.7088    2.5635 CT        1 <0>        0.13523
      4 C4         -0.1831    0.5832    2.0850 CT        1 <0>        0.10781
      5 C5          0.1743    2.7377    3.0014 CT        1 <0>        0.33099
      6 O1         -0.5999   -0.8539    3.9604 OH        1 <0>       -0.59634
      7 O2          1.3342    2.3326    3.7220 OH        1 <0>       -0.62197
      8 O3         -0.7516    1.6685    2.8163 OS        1 <0>       -0.46594
      9 H1         -1.4974    0.8254    0.3837 HC        1 <0>        0.04331
     10 H2          0.0100    1.7589    0.2680 HC        1 <0>        0.04331
     11 H3          0.0060   -0.0016    0.0041 HC        1 <0>        0.04331
     12 H4         -0.8727    3.5036    4.7382 HC        1 <0>        0.05407
     13 H5          0.1377    4.6979    3.9239 HC        1 <0>        0.05407
     14 H6         -1.3963    4.2217    3.1889 HC        1 <0>        0.05407
     15 H7         -1.9163   -0.6903    2.4039 H1        1 <0>        0.05081
     16 H8         -0.4036   -1.5777    2.0553 H1        1 <0>        0.05081
     17 H9          0.8907    0.5686    2.3018 H1        1 <0>        0.07319
     18 H10         0.4963    3.1184    2.0253 H2        1 <0>        0.07413
     19 H11        -1.0260   -1.6832    4.2284 HO        1 <0>        0.40610
     20 H12         1.9220    3.1015    3.8100 HO        1 <0>        0.41115
@<TRIPOS>BOND
     1    1    4 1
     2    2    5 1
     3    3    4 1
     4    3    6 1
     5    4    8 1
     6    5    7 1
     7    5    8 1
     8    1    9 1
     9    1   10 1
    10    1   11 1
    11    2   12 1
    12    2   13 1
    13    2   14 1
    14    3   15 1
    15    3   16 1
    16    4   17 1
    17    5   18 1
    18    6   19 1
    19    7   20 1
@<TRIPOS>SUBSTRUCTURE
     1 <0>         1 GROUP 0 A     ****
