@<TRIPOS>MOLECULE
AlkEthOH_c228
   19    18     1     0     0
SMALL
USER_CHARGES

@<TRIPOS>ATOM
      1 C1          0.7956   -0.5308    0.5350 CT        1 <0>       -0.08552
      2 C2          2.4619    1.2779    0.0738 CT        1 <0>       -0.08552
      3 C3          3.2609   -1.0520    0.6410 CT        1 <0>        0.13492
      4 C4          2.1671   -0.5752   -1.5855 CT        1 <0>        0.13492
      5 C5          2.1739   -0.2263   -0.0821 CT        1 <0>       -0.04922
      6 O1          3.3048   -0.7363    2.0274 OH        1 <0>       -0.60319
      7 O2          1.8791   -1.9529   -1.7892 OH        1 <0>       -0.60319
      8 H1          0.5429   -1.5936    0.4491 HC        1 <0>        0.04149
      9 H2          0.7770   -0.2742    1.6002 HC        1 <0>        0.04149
     10 H3          0.0007    0.0386    0.0411 HC        1 <0>        0.04149
     11 H4          3.4367    1.5388   -0.3537 HC        1 <0>        0.04149
     12 H5          1.7072    1.8892   -0.4328 HC        1 <0>        0.04149
     13 H6          2.4732    1.5688    1.1302 HC        1 <0>        0.04149
     14 H7          3.0673   -2.1262    0.5482 H1        1 <0>        0.02751
     15 H8          4.2492   -0.8451    0.2154 H1        1 <0>        0.02751
     16 H9          1.4096    0.0114   -2.1174 H1        1 <0>        0.02751
     17 H10         3.1424   -0.3616   -2.0371 H1        1 <0>        0.02751
     18 H11         4.0033   -1.2862    2.4167 HO        1 <0>        0.39891
     19 H12         1.8907   -2.1018   -2.7483 HO        1 <0>        0.39891
@<TRIPOS>BOND
     1    1    5 1
     2    2    5 1
     3    3    5 1
     4    3    6 1
     5    4    5 1
     6    4    7 1
     7    1    8 1
     8    1    9 1
     9    1   10 1
    10    2   11 1
    11    2   12 1
    12    2   13 1
    13    3   14 1
    14    3   15 1
    15    4   16 1
    16    4   17 1
    17    6   18 1
    18    7   19 1
@<TRIPOS>SUBSTRUCTURE
     1 <0>         1 GROUP 0 A     ****
