@<TRIPOS>MOLECULE
AlkEthOH_c111
   20    19     1     0     0
SMALL
USER_CHARGES

@<TRIPOS>ATOM
      1 C1          1.0650    0.1036    0.2406 CT        1 <0>       -0.12847
      2 C2          3.3016    3.2901    0.6157 CT        1 <0>       -0.11937
      3 C3          4.5274    3.6040    1.4683 CT        1 <0>        0.13008
      4 C4          1.4661    1.5740    0.2184 CT        1 <0>        0.14798
      5 C5          2.9160    1.8075    0.6740 CT        1 <0>        0.14933
      6 O1          4.8062    4.9947    1.3750 OH        1 <0>       -0.59640
      7 O2          1.2952    2.0727   -1.1069 OH        1 <0>       -0.59122
      8 O3          3.8201    1.0786   -0.1547 OH        1 <0>       -0.59089
      9 H1          1.7147   -0.5000   -0.4020 HC        1 <0>        0.04842
     10 H2          0.0490   -0.0164   -0.1518 HC        1 <0>        0.04842
     11 H3          1.0917   -0.3012    1.2568 HC        1 <0>        0.04842
     12 H4          3.5197    3.5913   -0.4169 HC        1 <0>        0.07886
     13 H5          2.4633    3.9143    0.9494 HC        1 <0>        0.07886
     14 H6          4.3445    3.3563    2.5187 H1        1 <0>        0.01599
     15 H7          5.4057    3.0520    1.1195 H1        1 <0>        0.01599
     16 H8          0.7917    2.1388    0.8728 H1        1 <0>        0.02986
     17 H9          3.0379    1.4434    1.7013 H1        1 <0>        0.03250
     18 H10         5.5879    5.1611    1.9261 HO        1 <0>        0.40012
     19 H11         0.3573    1.9598   -1.3245 HO        1 <0>        0.40075
     20 H12         4.7068    1.2299    0.2066 HO        1 <0>        0.40077
@<TRIPOS>BOND
     1    1    4 1
     2    2    3 1
     3    2    5 1
     4    3    6 1
     5    4    5 1
     6    4    7 1
     7    5    8 1
     8    1    9 1
     9    1   10 1
    10    1   11 1
    11    2   12 1
    12    2   13 1
    13    3   14 1
    14    3   15 1
    15    4   16 1
    16    5   17 1
    17    6   18 1
    18    7   19 1
    19    8   20 1
@<TRIPOS>SUBSTRUCTURE
     1 <0>         1 GROUP 0 A     ****
