@<TRIPOS>MOLECULE
AlkEthOH_r307
   16    16     1     0     0
SMALL
USER_CHARGES

@<TRIPOS>ATOM
      1 C1          0.5438    0.8815   -1.3593 CT        1 <0>       -0.09217
      2 C2         -0.4607    1.1713   -0.2302 CT        1 <0>       -0.10073
      3 C3          1.1752   -0.1920   -0.4554 CT        1 <0>       -0.10073
      4 C4         -0.1550   -0.2392    0.3476 CT        1 <0>        0.12454
      5 C5         -1.1185   -1.3380   -0.0829 CT        1 <0>       -0.11471
      6 O1          0.0152   -0.2836    1.7803 OH        1 <0>       -0.58038
      7 H1          0.0823    0.4772   -2.2671 HC        1 <0>        0.04968
      8 H2          1.1978    1.7124   -1.6355 HC        1 <0>        0.04968
      9 H3         -0.1567    1.9947    0.4271 HC        1 <0>        0.05810
     10 H4         -1.4890    1.3495   -0.5576 HC        1 <0>        0.05810
     11 H5          1.4674   -1.1149   -0.9645 HC        1 <0>        0.05810
     12 H6          2.0301    0.1716    0.1269 HC        1 <0>        0.05810
     13 H7         -0.8278   -2.2869    0.3681 HC        1 <0>        0.04385
     14 H8         -1.1037   -1.4430   -1.1678 HC        1 <0>        0.04385
     15 H9         -2.1317   -1.0911    0.2348 HC        1 <0>        0.04385
     16 H10         0.1963   -1.2076    1.9901 HO        1 <0>        0.40087
@<TRIPOS>BOND
     1    1    2 1
     2    1    3 1
     3    2    4 1
     4    3    4 1
     5    4    5 1
     6    4    6 1
     7    1    7 1
     8    1    8 1
     9    2    9 1
    10    2   10 1
    11    3   11 1
    12    3   12 1
    13    5   13 1
    14    5   14 1
    15    5   15 1
    16    6   16 1
@<TRIPOS>SUBSTRUCTURE
     1 <0>         1 GROUP 0 A     ****
