@<TRIPOS>MOLECULE
AlkEthOH_c1238
   19    18     1     0     0
SMALL
USER_CHARGES

@<TRIPOS>ATOM
      1 C1          0.5179   -3.9602   -4.0798 CT        1 <0>       -0.09735
      2 C2         -0.0326   -1.0089   -0.4213 CT        1 <0>       -0.11460
      3 C3         -0.9532    1.1285   -2.3958 CT        1 <0>        0.12490
      4 C4          0.5466   -2.4957   -3.6976 CT        1 <0>        0.13341
      5 C5          0.0350   -0.9855   -1.9430 CT        1 <0>        0.33533
      6 O1         -1.1004   -0.2838   -2.4553 OS        1 <0>       -0.44697
      7 O2          0.0393   -2.3517   -2.3774 OS        1 <0>       -0.41340
      8 H1          1.1378   -4.5527   -3.4012 HC        1 <0>        0.04470
      9 H2         -0.5062   -4.3466   -4.0514 HC        1 <0>        0.04470
     10 H3          0.8823   -4.0991   -5.1031 HC        1 <0>        0.04470
     11 H4         -0.9633   -1.4805   -0.0861 HC        1 <0>        0.05278
     12 H5         -0.0085    0.0004   -0.0004 HC        1 <0>        0.05278
     13 H6          0.7968   -1.5881   -0.0030 HC        1 <0>        0.05278
     14 H7         -1.8491    1.6063   -2.7997 H1        1 <0>        0.03162
     15 H8         -0.0753    1.4289   -2.9733 H1        1 <0>        0.03162
     16 H9         -0.8214    1.4286   -1.3536 H1        1 <0>        0.03162
     17 H10        -0.0753   -1.9087   -4.3801 H1        1 <0>        0.03164
     18 H11         1.5706   -2.1114   -3.7256 H1        1 <0>        0.03164
     19 H12         0.9718   -0.5106   -2.2632 H2        1 <0>        0.02810
@<TRIPOS>BOND
     1    1    4 1
     2    2    5 1
     3    3    6 1
     4    4    7 1
     5    5    6 1
     6    5    7 1
     7    1    8 1
     8    1    9 1
     9    1   10 1
    10    2   11 1
    11    2   12 1
    12    2   13 1
    13    3   14 1
    14    3   15 1
    15    3   16 1
    16    4   17 1
    17    4   18 1
    18    5   19 1
@<TRIPOS>SUBSTRUCTURE
     1 <0>         1 GROUP 0 A     ****
