@<TRIPOS>MOLECULE
AlkEthOH_r1101
   24    24     1     0     0
SMALL
USER_CHARGES

@<TRIPOS>ATOM
      1 C1         -0.9599    1.6895   -1.2993 CT        1 <0>        0.09477
      2 C2         -0.8033    1.7520    0.2118 CT        1 <0>        0.10392
      3 C3         -0.2415   -0.5888   -1.5416 CT        1 <0>        0.12905
      4 C4         -0.2500   -1.0535   -0.0790 CT        1 <0>       -0.10753
      5 C5          0.5831   -0.1297    0.8616 CT        1 <0>        0.34358
      6 C6          0.1636   -2.5273    0.0221 CT        1 <0>       -0.08595
      7 C7          2.0881   -0.4208    0.8054 CT        1 <0>       -0.11278
      8 O1         -1.2661    0.3802   -1.7653 OS        1 <0>       -0.41707
      9 O2          0.4851    1.2668    0.5618 OS        1 <0>       -0.45913
     10 O3          0.2007   -0.3684    2.2227 OH        1 <0>       -0.62172
     11 H1         -1.7967    2.3283   -1.5996 H1        1 <0>        0.05677
     12 H2         -0.0610    2.0503   -1.8123 H1        1 <0>        0.05677
     13 H3         -0.8348    2.8008    0.5240 H1        1 <0>        0.06247
     14 H4         -1.5960    1.2184    0.7466 H1        1 <0>        0.06247
     15 H5          0.7330   -0.2045   -1.8635 H1        1 <0>        0.05442
     16 H6         -0.4846   -1.4300   -2.2002 H1        1 <0>        0.05442
     17 H7         -1.2915   -1.0176    0.2724 HC        1 <0>        0.08620
     18 H8          1.1913   -2.6386   -0.3122 HC        1 <0>        0.04185
     19 H9         -0.4882   -3.1299   -0.6042 HC        1 <0>        0.04185
     20 H10         0.0806   -2.8566    1.0540 HC        1 <0>        0.04185
     21 H11         2.6112    0.2518    1.4789 HC        1 <0>        0.05335
     22 H12         2.4471   -0.2708   -0.2085 HC        1 <0>        0.05335
     23 H13         2.2684   -1.4486    1.1063 HC        1 <0>        0.05335
     24 H14         0.7431    0.2253    2.7597 HO        1 <0>        0.41374
@<TRIPOS>BOND
     1    1    2 1
     2    1    8 1
     3    2    9 1
     4    3    4 1
     5    3    8 1
     6    4    5 1
     7    4    6 1
     8    5    7 1
     9    5    9 1
    10    5   10 1
    11    1   11 1
    12    1   12 1
    13    2   13 1
    14    2   14 1
    15    3   15 1
    16    3   16 1
    17    4   17 1
    18    6   18 1
    19    6   19 1
    20    6   20 1
    21    7   21 1
    22    7   22 1
    23    7   23 1
    24   10   24 1
@<TRIPOS>SUBSTRUCTURE
     1 <0>         1 GROUP 0 A     ****
