@<TRIPOS>MOLECULE
AlkEthOH_c1077
   23    22     1     0     0
SMALL
USER_CHARGES

@<TRIPOS>ATOM
      1 C1          0.1004    0.8022   -0.9300 CT        1 <0>       -0.09194
      2 C2          3.5011    0.7120   -4.2305 CT        1 <0>       -0.09210
      3 C3          1.8580   -2.6901   -3.2926 CT        1 <0>       -0.09038
      4 C4          0.6694    0.1336   -2.1733 CT        1 <0>       -0.08035
      5 C5          2.6912   -0.5705   -4.3535 CT        1 <0>       -0.07451
      6 C6          1.9784   -0.5962   -1.8601 CT        1 <0>       -0.07235
      7 C7          2.5977   -1.3718   -3.0415 CT        1 <0>       -0.06250
      8 H1          0.8156    1.5138   -0.5051 HC        1 <0>        0.03215
      9 H2         -0.1450    0.0606   -0.1632 HC        1 <0>        0.03215
     10 H3         -0.8148    1.3485   -1.1791 HC        1 <0>        0.03215
     11 H4          4.5094    0.5167   -3.8542 HC        1 <0>        0.03284
     12 H5          3.0143    1.3966   -3.5283 HC        1 <0>        0.03284
     13 H6          3.5824    1.2197   -5.1967 HC        1 <0>        0.03284
     14 H7          0.8227   -2.5057   -3.5977 HC        1 <0>        0.03293
     15 H8          2.3437   -3.2871   -4.0709 HC        1 <0>        0.03293
     16 H9          1.8311   -3.2953   -2.3798 HC        1 <0>        0.03293
     17 H10        -0.0747   -0.5675   -2.5654 HC        1 <0>        0.03927
     18 H11         0.8321    0.9004   -2.9377 HC        1 <0>        0.03927
     19 H12         1.6907   -0.3317   -4.7324 HC        1 <0>        0.03826
     20 H13         3.1658   -1.1994   -5.1176 HC        1 <0>        0.03826
     21 H14         2.7111    0.1269   -1.4813 HC        1 <0>        0.03698
     22 H15         1.8036   -1.2996   -1.0351 HC        1 <0>        0.03698
     23 H16         3.6214   -1.6353   -2.7416 HC        1 <0>        0.04135
@<TRIPOS>BOND
     1    1    4 1
     2    2    5 1
     3    3    7 1
     4    4    6 1
     5    5    7 1
     6    6    7 1
     7    1    8 1
     8    1    9 1
     9    1   10 1
    10    2   11 1
    11    2   12 1
    12    2   13 1
    13    3   14 1
    14    3   15 1
    15    3   16 1
    16    4   17 1
    17    4   18 1
    18    5   19 1
    19    5   20 1
    20    6   21 1
    21    6   22 1
    22    7   23 1
@<TRIPOS>SUBSTRUCTURE
     1 <0>         1 GROUP 0 A     ****
