@<TRIPOS>MOLECULE
AlkEthOH_r311
   28    28     1     0     0
SMALL
USER_CHARGES

@<TRIPOS>ATOM
      1 C1          1.4234   -0.5326    1.1552 CT        1 <0>       -0.07181
      2 C2          1.2867   -1.2229   -0.2001 CT        1 <0>       -0.06666
      3 C3          1.1046    0.9578    1.0584 CT        1 <0>       -0.10086
      4 C4         -0.4677    0.4818   -0.8758 CT        1 <0>       -0.05438
      5 C5         -0.0992   -1.0251   -0.8516 CT        1 <0>       -0.04584
      6 C6         -0.2844    1.2237    0.4630 CT        1 <0>        0.15290
      7 C7         -0.0405   -1.5372   -2.3062 CT        1 <0>       -0.08687
      8 C8         -1.1661   -1.8590   -0.1159 CT        1 <0>       -0.08687
      9 C9         -0.4923    2.7294    0.2689 CT        1 <0>       -0.12360
     10 O1         -1.2645    0.7841    1.4041 OH        1 <0>       -0.59508
     11 H1          0.7704   -1.0099    1.8941 HC        1 <0>        0.04381
     12 H2          2.4488   -0.6585    1.5223 HC        1 <0>        0.04381
     13 H3          2.0635   -0.8240   -0.8665 HC        1 <0>        0.03825
     14 H4          1.5025   -2.2923   -0.0836 HC        1 <0>        0.03825
     15 H5          1.1717    1.3893    2.0650 HC        1 <0>        0.04206
     16 H6          1.8736    1.4443    0.4446 HC        1 <0>        0.04206
     17 H7          0.1600    0.9788   -1.6289 HC        1 <0>        0.04917
     18 H8         -1.5063    0.5887   -1.2167 HC        1 <0>        0.04917
     19 H9         -1.0110   -1.4007   -2.7682 HC        1 <0>        0.03570
     20 H10         0.2206   -2.5887   -2.3002 HC        1 <0>        0.03570
     21 H11         0.7091   -0.9738   -2.8490 HC        1 <0>        0.03570
     22 H12        -2.1283   -1.7038   -0.5908 HC        1 <0>        0.03570
     23 H13        -1.2124   -1.5425    0.9200 HC        1 <0>        0.03570
     24 H14        -0.8956   -2.9077   -0.1680 HC        1 <0>        0.03570
     25 H15        -1.4779    2.9094   -0.1529 HC        1 <0>        0.04132
     26 H16         0.2655    3.1174   -0.4070 HC        1 <0>        0.04132
     27 H17        -0.4129    3.2345    1.2283 HC        1 <0>        0.04132
     28 H18        -1.1184    1.2993    2.2116 HO        1 <0>        0.39433
@<TRIPOS>BOND
     1    1    2 1
     2    1    3 1
     3    2    5 1
     4    3    6 1
     5    4    5 1
     6    4    6 1
     7    5    7 1
     8    5    8 1
     9    6    9 1
    10    6   10 1
    11    1   11 1
    12    1   12 1
    13    2   13 1
    14    2   14 1
    15    3   15 1
    16    3   16 1
    17    4   17 1
    18    4   18 1
    19    7   19 1
    20    7   20 1
    21    7   21 1
    22    8   22 1
    23    8   23 1
    24    8   24 1
    25    9   25 1
    26    9   26 1
    27    9   27 1
    28   10   28 1
@<TRIPOS>SUBSTRUCTURE
     1 <0>         1 GROUP 0 A     ****
