@<TRIPOS>MOLECULE
AlkEthOH_c461
   27    26     1     0     0
SMALL
USER_CHARGES

@<TRIPOS>ATOM
      1 C1         -0.5443    0.9173   -0.1754 CT        1 <0>       -0.09049
      2 C2          0.7548    1.2245   -2.2912 CT        1 <0>       -0.09049
      3 C3         -5.8229   -2.5026   -2.9286 CT        1 <0>       -0.13092
      4 C4         -2.8849   -0.1208   -1.8839 CT        1 <0>       -0.07688
      5 C5         -1.4425    0.0096   -2.3854 CT        1 <0>       -0.07291
      6 C6         -3.6446   -1.1968   -2.6628 CT        1 <0>       -0.07170
      7 C7         -0.6484    1.1290   -1.6865 CT        1 <0>       -0.06663
      8 C8         -5.0853   -1.3979   -2.1835 CT        1 <0>        0.13940
      9 O1         -5.7819   -0.1686   -2.3888 OH        1 <0>       -0.59987
     10 H1         -0.0413   -0.0294    0.0501 HC        1 <0>        0.03263
     11 H2         -1.5350    0.8925    0.2910 HC        1 <0>        0.03263
     12 H3          0.0374    1.7126    0.3001 HC        1 <0>        0.03263
     13 H4          1.3152    0.2949   -2.1442 HC        1 <0>        0.03263
     14 H5          0.7028    1.4232   -3.3668 HC        1 <0>        0.03263
     15 H6          1.3229    2.0394   -1.8300 HC        1 <0>        0.03263
     16 H7         -5.8356   -2.3282   -4.0079 HC        1 <0>        0.04198
     17 H8         -6.8554   -2.5914   -2.5732 HC        1 <0>        0.04198
     18 H9         -5.3451   -3.4717   -2.7470 HC        1 <0>        0.04198
     19 H10        -2.8811   -0.3761   -0.8198 HC        1 <0>        0.04803
     20 H11        -3.3992    0.8415   -1.9912 HC        1 <0>        0.04803
     21 H12        -0.9246   -0.9495   -2.2568 HC        1 <0>        0.03735
     22 H13        -1.4625    0.2132   -3.4640 HC        1 <0>        0.03735
     23 H14        -3.6665   -0.9318   -3.7282 HC        1 <0>        0.04723
     24 H15        -3.1020   -2.1499   -2.6109 HC        1 <0>        0.04723
     25 H16        -1.1567    2.0850   -1.8651 HC        1 <0>        0.04767
     26 H17        -5.0927   -1.6055   -1.1076 H1        1 <0>        0.02929
     27 H18        -6.6750   -0.2980   -2.0358 HO        1 <0>        0.39659
@<TRIPOS>BOND
     1    1    7 1
     2    2    7 1
     3    3    8 1
     4    4    5 1
     5    4    6 1
     6    5    7 1
     7    6    8 1
     8    8    9 1
     9    1   10 1
    10    1   11 1
    11    1   12 1
    12    2   13 1
    13    2   14 1
    14    2   15 1
    15    3   16 1
    16    3   17 1
    17    3   18 1
    18    4   19 1
    19    4   20 1
    20    5   21 1
    21    5   22 1
    22    6   23 1
    23    6   24 1
    24    7   25 1
    25    8   26 1
    26    9   27 1
@<TRIPOS>SUBSTRUCTURE
     1 <0>         1 GROUP 0 A     ****
