@<TRIPOS>MOLECULE
AlkEthOH_c300
   25    24     1     0     0
SMALL
USER_CHARGES

@<TRIPOS>ATOM
      1 C1         -0.6036   -1.4961    1.8968 CT        1 <0>       -0.09093
      2 C2         -1.3265   -1.5683   -0.4810 CT        1 <0>       -0.09093
      3 C3          0.9244    1.0885    1.3525 CT        1 <0>       -0.12449
      4 C4          0.1064    1.0768   -1.0373 CT        1 <0>       -0.11476
      5 C5          1.2543    0.4068   -1.7844 CT        1 <0>        0.13676
      6 C6         -0.2711   -1.0005    0.4801 CT        1 <0>       -0.04717
      7 C7         -0.1539    0.5540    0.3957 CT        1 <0>        0.15802
      8 O1          1.3977    1.0033   -3.0689 OH        1 <0>       -0.60352
      9 O2         -1.4059    1.1167    0.8184 OH        1 <0>       -0.59836
     10 H1         -1.5642   -1.0897    2.2330 HC        1 <0>        0.03902
     11 H2          0.1587   -1.1914    2.6213 HC        1 <0>        0.03902
     12 H3         -0.6936   -2.5859    1.9289 HC        1 <0>        0.03902
     13 H4         -2.3174   -1.1593   -0.2536 HC        1 <0>        0.03902
     14 H5         -1.4067   -2.6554   -0.3929 HC        1 <0>        0.03902
     15 H6         -1.0954   -1.3236   -1.5228 HC        1 <0>        0.03902
     16 H7          0.7533    0.7262    2.3731 HC        1 <0>        0.04357
     17 H8          1.9204    0.7262    1.0766 HC        1 <0>        0.04357
     18 H9          0.9435    2.1823    1.3762 HC        1 <0>        0.04357
     19 H10        -0.8114    1.0104   -1.6364 HC        1 <0>        0.06124
     20 H11         0.2957    2.1594   -1.0012 HC        1 <0>        0.06124
     21 H12         2.2024    0.5350   -1.2555 H1        1 <0>        0.02395
     22 H13         1.0806   -0.6630   -1.9285 H1        1 <0>        0.02395
     23 H14         0.6960   -1.4418    0.2075 HC        1 <0>        0.04168
     24 H15         2.1350    0.5485   -3.5058 HO        1 <0>        0.40051
     25 H16        -1.3008    2.0755    0.7543 HO        1 <0>        0.39798
@<TRIPOS>BOND
     1    1    6 1
     2    2    6 1
     3    3    7 1
     4    4    5 1
     5    4    7 1
     6    5    8 1
     7    6    7 1
     8    7    9 1
     9    1   10 1
    10    1   11 1
    11    1   12 1
    12    2   13 1
    13    2   14 1
    14    2   15 1
    15    3   16 1
    16    3   17 1
    17    3   18 1
    18    4   19 1
    19    4   20 1
    20    5   21 1
    21    5   22 1
    22    6   23 1
    23    8   24 1
    24    9   25 1
@<TRIPOS>SUBSTRUCTURE
     1 <0>         1 GROUP 0 A     ****
