@<TRIPOS>MOLECULE
AlkEthOH_r344
   36    36     1     0     0
SMALL
USER_CHARGES

@<TRIPOS>ATOM
      1 C1          1.1383    2.1391   -1.0231 CT        1 <0>       -0.07406
      2 C2          2.0094    0.9529   -0.6115 CT        1 <0>       -0.07237
      3 C3         -0.2959    1.7925   -1.4215 CT        1 <0>       -0.07237
      4 C4          1.6459    0.3437    0.7468 CT        1 <0>       -0.06485
      5 C5         -1.1939    1.3774   -0.2511 CT        1 <0>       -0.06485
      6 C6         -0.3094   -1.0891   -0.2477 CT        1 <0>       -0.05326
      7 C7          0.9132   -1.0207    0.7146 CT        1 <0>       -0.04152
      8 C8         -1.5324   -0.1305   -0.1447 CT        1 <0>       -0.04152
      9 C9          0.5338   -1.3972    2.1610 CT        1 <0>       -0.08999
     10 C10         1.9146   -2.1089    0.2357 CT        1 <0>       -0.08999
     11 C11        -2.3353   -0.3527    1.1529 CT        1 <0>       -0.08999
     12 C12        -2.4884   -0.5065   -1.3114 CT        1 <0>       -0.08999
     13 H1          1.1347    2.8958   -0.2287 HC        1 <0>        0.03588
     14 H2          1.6160    2.6146   -1.8897 HC        1 <0>        0.03588
     15 H3          2.0289    0.2070   -1.4115 HC        1 <0>        0.03760
     16 H4          3.0381    1.3307   -0.5355 HC        1 <0>        0.03760
     17 H5         -0.7285    2.7025   -1.8586 HC        1 <0>        0.03760
     18 H6         -0.2925    1.0524   -2.2273 HC        1 <0>        0.03760
     19 H7          2.5866    0.1998    1.2984 HC        1 <0>        0.03795
     20 H8          1.0924    1.0670    1.3543 HC        1 <0>        0.03795
     21 H9         -0.7869    1.7513    0.6940 HC        1 <0>        0.03795
     22 H10        -2.1435    1.9214   -0.3639 HC        1 <0>        0.03795
     23 H11         0.0754   -1.0230   -1.2746 HC        1 <0>        0.03698
     24 H12        -0.7055   -2.1147   -0.1832 HC        1 <0>        0.03698
     25 H13         0.0194   -2.3512    2.1555 HC        1 <0>        0.03307
     26 H14        -0.1159   -0.6311    2.5678 HC        1 <0>        0.03307
     27 H15         1.4364   -1.4691    2.7568 HC        1 <0>        0.03307
     28 H16         1.4022   -3.0592    0.2138 HC        1 <0>        0.03307
     29 H17         2.7414   -2.1417    0.9295 HC        1 <0>        0.03307
     30 H18         2.2609   -1.8438   -0.7522 HC        1 <0>        0.03307
     31 H19        -2.5803   -1.4047    1.2422 HC        1 <0>        0.03307
     32 H20        -3.2451    0.2349    1.1116 HC        1 <0>        0.03307
     33 H21        -1.7340   -0.0416    1.9993 HC        1 <0>        0.03307
     34 H22        -2.7232   -1.5578   -1.2357 HC        1 <0>        0.03307
     35 H23        -1.9871   -0.2980   -2.2448 HC        1 <0>        0.03307
     36 H24        -3.3855    0.0881   -1.2234 HC        1 <0>        0.03307
@<TRIPOS>BOND
     1    1    2 1
     2    1    3 1
     3    2    4 1
     4    3    5 1
     5    4    7 1
     6    5    8 1
     7    6    7 1
     8    6    8 1
     9    7    9 1
    10    7   10 1
    11    8   11 1
    12    8   12 1
    13    1   13 1
    14    1   14 1
    15    2   15 1
    16    2   16 1
    17    3   17 1
    18    3   18 1
    19    4   19 1
    20    4   20 1
    21    5   21 1
    22    5   22 1
    23    6   23 1
    24    6   24 1
    25    9   25 1
    26    9   26 1
    27    9   27 1
    28   10   28 1
    29   10   29 1
    30   10   30 1
    31   11   31 1
    32   11   32 1
    33   11   33 1
    34   12   34 1
    35   12   35 1
    36   12   36 1
@<TRIPOS>SUBSTRUCTURE
     1 <0>         1 GROUP 0 A     ****
