@<TRIPOS>MOLECULE
AlkEthOH_r490
   27    27     1     0     0
SMALL
USER_CHARGES

@<TRIPOS>ATOM
      1 C1         -1.2310    1.0354   -1.6385 CT        1 <0>       -0.09751
      2 C2         -1.2350   -0.3584   -1.0175 CT        1 <0>       -0.09986
      3 C3         -0.4985    2.1315   -0.8800 CT        1 <0>        0.12953
      4 C4          0.6548    1.2047    0.9821 CT        1 <0>        0.10054
      5 C5          0.1019   -0.8977   -0.4655 CT        1 <0>        0.17748
      6 C6          0.4678   -0.3209    0.9386 CT        1 <0>        0.13980
      7 C7          1.2283   -0.7649   -1.4980 CT        1 <0>       -0.12391
      8 C8          1.7184   -0.9901    1.5371 CT        1 <0>       -0.12454
      9 O1         -0.4930    1.9166    0.5220 OS        1 <0>       -0.39914
     10 O2         -0.0925   -2.3199   -0.3073 OH        1 <0>       -0.59019
     11 O3         -0.6212   -0.6362    1.8270 OH        1 <0>       -0.57326
     12 H1         -0.8369    0.9918   -2.6614 HC        1 <0>        0.04230
     13 H2         -2.2805    1.3390   -1.7506 HC        1 <0>        0.04230
     14 H3         -1.9975   -0.3932   -0.2281 HC        1 <0>        0.06157
     15 H4         -1.6151   -1.0556   -1.7783 HC        1 <0>        0.06157
     16 H5          0.5175    2.2726   -1.2656 H1        1 <0>        0.04255
     17 H6         -1.0143    3.0818   -1.0601 H1        1 <0>        0.04255
     18 H7          0.7842    1.5167    2.0258 H1        1 <0>        0.04995
     19 H8          1.5573    1.5251    0.4481 H1        1 <0>        0.04995
     20 H9          2.1508   -1.1529   -1.0768 HC        1 <0>        0.04327
     21 H10         1.3586    0.2816   -1.7564 HC        1 <0>        0.04327
     22 H11         0.9693   -1.3298   -2.3884 HC        1 <0>        0.04327
     23 H12         1.5941   -2.0673    1.5101 HC        1 <0>        0.04840
     24 H13         1.8422   -0.6615    2.5634 HC        1 <0>        0.04840
     25 H14         2.5882   -0.7069    0.9542 HC        1 <0>        0.04840
     26 H15        -0.2998   -2.6501   -1.1893 HO        1 <0>        0.39652
     27 H16        -0.3468   -0.3235    2.6986 HO        1 <0>        0.39679
@<TRIPOS>BOND
     1    1    2 1
     2    1    3 1
     3    2    5 1
     4    3    9 1
     5    4    6 1
     6    4    9 1
     7    5    6 1
     8    5    7 1
     9    5   10 1
    10    6    8 1
    11    6   11 1
    12    1   12 1
    13    1   13 1
    14    2   14 1
    15    2   15 1
    16    3   16 1
    17    3   17 1
    18    4   18 1
    19    4   19 1
    20    7   20 1
    21    7   21 1
    22    7   22 1
    23    8   23 1
    24    8   24 1
    25    8   25 1
    26   10   26 1
    27   11   27 1
@<TRIPOS>SUBSTRUCTURE
     1 <0>         1 GROUP 0 A     ****
