@<TRIPOS>MOLECULE
AlkEthOH_r205
   27    27     1     0     0
SMALL
USER_CHARGES

@<TRIPOS>ATOM
      1 C1          1.0024    1.8982   -1.0508 CT        1 <0>        0.09728
      2 C2          1.0666    1.6303    0.4406 CT        1 <0>        0.09669
      3 C3         -0.1542   -0.1194   -1.6521 CT        1 <0>        0.09766
      4 C4         -0.1368   -0.9323   -0.3410 CT        1 <0>        0.10469
      5 C5         -0.5956   -0.1067    0.9198 CT        1 <0>        0.17062
      6 C6         -0.9776   -2.2098   -0.5354 CT        1 <0>       -0.11766
      7 C7         -2.1338   -0.0452    1.0337 CT        1 <0>       -0.09828
      8 C8         -0.0564   -0.6986    2.2367 CT        1 <0>       -0.09828
      9 O1          1.0053    0.6970   -1.8074 OS        1 <0>       -0.41556
     10 O2         -0.2295    1.2823    0.8944 OS        1 <0>       -0.43147
     11 O3          1.2096   -1.3958   -0.1386 OH        1 <0>       -0.59569
     12 H1          0.1223    2.4937   -1.3196 H1        1 <0>        0.05664
     13 H2          1.8928    2.4585   -1.3536 H1        1 <0>        0.05664
     14 H3          1.8141    0.8793    0.7099 H1        1 <0>        0.06814
     15 H4          1.3327    2.5616    0.9512 H1        1 <0>        0.06814
     16 H5         -0.1208   -0.8092   -2.5037 H1        1 <0>        0.05794
     17 H6         -1.0683    0.4742   -1.7674 H1        1 <0>        0.05794
     18 H7         -0.9675   -2.7833    0.3841 HC        1 <0>        0.04534
     19 H8         -0.5496   -2.7959   -1.3400 HC        1 <0>        0.04534
     20 H9         -1.9945   -1.9295   -0.7838 HC        1 <0>        0.04534
     21 H10        -2.3993    0.5304    1.9120 HC        1 <0>        0.04636
     22 H11        -2.5210   -1.0530    1.1212 HC        1 <0>        0.04636
     23 H12        -2.5340    0.4290    0.1458 HC        1 <0>        0.04636
     24 H13        -0.4021   -0.0928    3.0668 HC        1 <0>        0.04636
     25 H14         1.0275   -0.6990    2.2089 HC        1 <0>        0.04636
     26 H15        -0.4214   -1.7138    2.3460 HC        1 <0>        0.04636
     27 H16         1.4188   -1.9410   -0.9083 HO        1 <0>        0.41038
@<TRIPOS>BOND
     1    1    2 1
     2    1    9 1
     3    2   10 1
     4    3    4 1
     5    3    9 1
     6    4    5 1
     7    4    6 1
     8    4   11 1
     9    5    7 1
    10    5    8 1
    11    5   10 1
    12    1   12 1
    13    1   13 1
    14    2   14 1
    15    2   15 1
    16    3   16 1
    17    3   17 1
    18    6   18 1
    19    6   19 1
    20    6   20 1
    21    7   21 1
    22    7   22 1
    23    7   23 1
    24    8   24 1
    25    8   25 1
    26    8   26 1
    27   11   27 1
@<TRIPOS>SUBSTRUCTURE
     1 <0>         1 GROUP 0 A     ****
