@<TRIPOS>MOLECULE
AlkEthOH_r736
   28    28     1     0     0
SMALL
USER_CHARGES

@<TRIPOS>ATOM
      1 C1          1.1333   -0.9848   -0.9203 CT        1 <0>       -0.15927
      2 C2          1.3160    0.2346   -1.8286 CT        1 <0>        0.14834
      3 C3         -0.8763    1.1643   -1.6443 CT        1 <0>        0.33029
      4 C4          1.0797   -0.6907    0.5927 CT        1 <0>        0.37121
      5 C5         -1.2488    0.1958    0.5509 CT        1 <0>        0.36663
      6 C6          2.4371   -0.1561    1.0696 CT        1 <0>       -0.11702
      7 C7         -1.9164   -1.0462    1.1519 CT        1 <0>       -0.10570
      8 C8         -1.9583    1.4310    1.1250 CT        1 <0>       -0.10570
      9 O1          0.5226    1.3555   -1.4524 OS        1 <0>       -0.43145
     10 O2         -1.4609    0.1239   -0.8656 OS        1 <0>       -0.47888
     11 O3          0.1213    0.3076    0.9611 OS        1 <0>       -0.42402
     12 O4          0.8507   -1.9350    1.2600 OH        1 <0>       -0.62525
     13 H1          0.2200   -1.5162   -1.2135 HC        1 <0>        0.06255
     14 H2          1.9333   -1.7076   -1.1300 HC        1 <0>        0.06255
     15 H3          2.3606    0.5607   -1.7851 H1        1 <0>        0.04476
     16 H4          1.1153   -0.0302   -2.8734 H1        1 <0>        0.04476
     17 H5         -1.3835    2.1107   -1.4336 H2        1 <0>        0.06151
     18 H6         -1.0655    0.9395   -2.6999 H2        1 <0>        0.06151
     19 H7          2.3910    0.0483    2.1354 HC        1 <0>        0.05311
     20 H8          2.6733    0.7593    0.5347 HC        1 <0>        0.05311
     21 H9          3.2063   -0.8983    0.8756 HC        1 <0>        0.05311
     22 H10        -1.4357   -1.9408    0.7645 HC        1 <0>        0.05482
     23 H11        -2.9698   -1.0580    0.8847 HC        1 <0>        0.05482
     24 H12        -1.8186   -1.0237    2.2343 HC        1 <0>        0.05482
     25 H13        -1.5057    2.3294    0.7160 HC        1 <0>        0.05482
     26 H14        -1.8587    1.4339    2.2063 HC        1 <0>        0.05482
     27 H15        -3.0102    1.3997    0.8569 HC        1 <0>        0.05482
     28 H16         1.5957   -2.5082    1.0276 HO        1 <0>        0.40493
@<TRIPOS>BOND
     1    1    2 1
     2    1    4 1
     3    2    9 1
     4    3    9 1
     5    3   10 1
     6    4    6 1
     7    4   11 1
     8    4   12 1
     9    5    7 1
    10    5    8 1
    11    5   10 1
    12    5   11 1
    13    1   13 1
    14    1   14 1
    15    2   15 1
    16    2   16 1
    17    3   17 1
    18    3   18 1
    19    6   19 1
    20    6   20 1
    21    6   21 1
    22    7   22 1
    23    7   23 1
    24    7   24 1
    25    8   25 1
    26    8   26 1
    27    8   27 1
    28   12   28 1
@<TRIPOS>SUBSTRUCTURE
     1 <0>         1 GROUP 0 A     ****
