@<TRIPOS>MOLECULE
AlkEthOH_r64
   25    25     1     0     0
SMALL
USER_CHARGES

@<TRIPOS>ATOM
      1 C1          0.1170    1.3897   -1.0550 CT        1 <0>       -0.07510
      2 C2          0.6240    0.2369   -1.9209 CT        1 <0>       -0.07499
      3 C3          0.9617    1.7505    0.1700 CT        1 <0>       -0.06687
      4 C4          0.6036   -1.1859   -1.3577 CT        1 <0>       -0.06687
      5 C5          0.9851    0.7777    1.3517 CT        1 <0>       -0.10266
      6 C6         -0.7423   -1.6875   -0.8229 CT        1 <0>       -0.10266
      7 C7         -0.3845    0.4409    1.9380 CT        1 <0>        0.13292
      8 C8         -0.9099   -1.5314    0.6881 CT        1 <0>        0.13292
      9 O1         -1.2547   -0.1908    1.0088 OS        1 <0>       -0.42269
     10 H1          0.1179    2.2802   -1.6999 HC        1 <0>        0.04116
     11 H2         -0.9352    1.2496   -0.7952 HC        1 <0>        0.04116
     12 H3          0.0236    0.2347   -2.8409 HC        1 <0>        0.04116
     13 H4          1.6495    0.4624   -2.2404 HC        1 <0>        0.04116
     14 H5          1.9959    1.9237   -0.1538 HC        1 <0>        0.03388
     15 H6          0.6008    2.7176    0.5446 HC        1 <0>        0.03388
     16 H7          0.8830   -1.8438   -2.1928 HC        1 <0>        0.03388
     17 H8          1.3982   -1.3271   -0.6203 HC        1 <0>        0.03388
     18 H9          1.5155   -0.1334    1.0705 HC        1 <0>        0.04643
     19 H10         1.5884    1.2329    2.1476 HC        1 <0>        0.04643
     20 H11        -1.5669   -1.2008   -1.3562 HC        1 <0>        0.04643
     21 H12        -0.8029   -2.7609   -1.0437 HC        1 <0>        0.04643
     22 H13        -0.2786   -0.1894    2.8288 H1        1 <0>        0.04003
     23 H14        -0.8753    1.3660    2.2598 H1        1 <0>        0.04003
     24 H15        -1.7509   -2.1544    1.0127 H1        1 <0>        0.04003
     25 H16        -0.0239   -1.8844    1.2287 H1        1 <0>        0.04003
@<TRIPOS>BOND
     1    1    2 1
     2    1    3 1
     3    2    4 1
     4    3    5 1
     5    4    6 1
     6    5    7 1
     7    6    8 1
     8    7    9 1
     9    8    9 1
    10    1   10 1
    11    1   11 1
    12    2   12 1
    13    2   13 1
    14    3   14 1
    15    3   15 1
    16    4   16 1
    17    4   17 1
    18    5   18 1
    19    5   19 1
    20    6   20 1
    21    6   21 1
    22    7   22 1
    23    7   23 1
    24    8   24 1
    25    8   25 1
@<TRIPOS>SUBSTRUCTURE
     1 <0>         1 GROUP 0 A     ****
