@<TRIPOS>MOLECULE
AlkEthOH_r929
   29    29     1     0     0
SMALL
USER_CHARGES

@<TRIPOS>ATOM
      1 C1         -1.8095   -0.2903    1.3143 CT        1 <0>       -0.05587
      2 C2         -0.4341   -0.3036    1.9863 CT        1 <0>       -0.10824
      3 C3         -1.8415   -0.1989   -0.2160 CT        1 <0>       -0.10278
      4 C4          0.5353   -1.3625    1.4631 CT        1 <0>        0.14712
      5 C5         -0.9935    0.9122   -0.8559 CT        1 <0>        0.15764
      6 C6          1.1800   -0.2102   -0.5998 CT        1 <0>        0.34850
      7 C7         -1.5820    2.2896   -0.5532 CT        1 <0>       -0.09287
      8 C8          1.3014   -0.5529   -2.0903 CT        1 <0>       -0.10912
      9 C9          2.5774    0.1584   -0.0840 CT        1 <0>       -0.10912
     10 O1          0.7029   -1.3938    0.0508 OS        1 <0>       -0.44830
     11 O2          0.3635    0.9520   -0.4151 OS        1 <0>       -0.44734
     12 H1         -2.3499   -1.1992    1.6087 HC        1 <0>        0.03260
     13 H2         -2.3842    0.5457    1.7318 HC        1 <0>        0.03260
     14 H3          0.0185    0.6907    1.9121 HC        1 <0>        0.05148
     15 H4         -0.5767   -0.4708    3.0616 HC        1 <0>        0.05148
     16 H5         -1.5449   -1.1681   -0.6323 HC        1 <0>        0.04999
     17 H6         -2.8862   -0.0729   -0.5298 HC        1 <0>        0.04999
     18 H7          1.5103   -1.2633    1.9516 H1        1 <0>        0.04152
     19 H8          0.1548   -2.3505    1.7465 H1        1 <0>        0.04152
     20 H9         -1.0110    0.7891   -1.9447 H1        1 <0>        0.03144
     21 H10        -1.5863    2.4600    0.5218 HC        1 <0>        0.04286
     22 H11        -2.6025    2.3444   -0.9278 HC        1 <0>        0.04286
     23 H12        -0.9825    3.0600   -1.0349 HC        1 <0>        0.04286
     24 H13         0.3232   -0.8183   -2.4817 HC        1 <0>        0.05153
     25 H14         1.9809   -1.3914   -2.2150 HC        1 <0>        0.05153
     26 H15         1.6858    0.3082   -2.6298 HC        1 <0>        0.05153
     27 H16         2.5196    0.4062    0.9721 HC        1 <0>        0.05153
     28 H17         2.9530    1.0148   -0.6370 HC        1 <0>        0.05153
     29 H18         3.2483   -0.6848   -0.2223 HC        1 <0>        0.05153
@<TRIPOS>BOND
     1    1    2 1
     2    1    3 1
     3    2    4 1
     4    3    5 1
     5    4   10 1
     6    5    7 1
     7    5   11 1
     8    6    8 1
     9    6    9 1
    10    6   10 1
    11    6   11 1
    12    1   12 1
    13    1   13 1
    14    2   14 1
    15    2   15 1
    16    3   16 1
    17    3   17 1
    18    4   18 1
    19    4   19 1
    20    5   20 1
    21    7   21 1
    22    7   22 1
    23    7   23 1
    24    8   24 1
    25    8   25 1
    26    8   26 1
    27    9   27 1
    28    9   28 1
    29    9   29 1
@<TRIPOS>SUBSTRUCTURE
     1 <0>         1 GROUP 0 A     ****
