@<TRIPOS>MOLECULE
AlkEthOH_r608
   15    15     1     0     0
SMALL
USER_CHARGES

@<TRIPOS>ATOM
      1 C1         -0.9302   -1.0248    0.2644 CT        1 <0>        0.08763
      2 C2          0.5525    0.3423    0.7241 CT        1 <0>        0.32480
      3 C3          0.0053   -0.1868   -0.6189 CT        1 <0>        0.10847
      4 C4          1.0076   -0.9876   -1.4352 CT        1 <0>       -0.12494
      5 O1         -0.2214   -0.6374    1.4626 OS        1 <0>       -0.45089
      6 O2          0.2272    1.7035    1.0613 OH        1 <0>       -0.56742
      7 O3         -0.6410    0.7908   -1.4583 OH        1 <0>       -0.54792
      8 H1         -1.9717   -0.6921    0.2938 H1        1 <0>        0.06402
      9 H2         -0.9000   -2.1081    0.1157 H1        1 <0>        0.06402
     10 H3          1.6222    0.1705    0.8771 H2        1 <0>        0.06647
     11 H4          1.6296   -0.3174   -2.0311 HC        1 <0>        0.05263
     12 H5          0.4858   -1.6714   -2.1071 HC        1 <0>        0.05263
     13 H6          1.6527   -1.5695   -0.7744 HC        1 <0>        0.05263
     14 H7          0.6414    1.8685    1.9184 HO        1 <0>        0.41512
     15 H8         -1.2353    0.2891   -2.0293 HO        1 <0>        0.40275
@<TRIPOS>BOND
     1    1    3 1
     2    1    5 1
     3    2    3 1
     4    2    5 1
     5    2    6 1
     6    3    4 1
     7    3    7 1
     8    1    8 1
     9    1    9 1
    10    2   10 1
    11    4   11 1
    12    4   12 1
    13    4   13 1
    14    6   14 1
    15    7   15 1
@<TRIPOS>SUBSTRUCTURE
     1 <0>         1 GROUP 0 A     ****
