@<TRIPOS>MOLECULE
AlkEthOH_c858
   22    21     1     0     0
SMALL
USER_CHARGES

@<TRIPOS>ATOM
      1 C1         -0.0532    0.6436   -2.8021 CT        1 <0>       -0.09461
      2 C2          1.7820   -1.0849    0.3355 CT        1 <0>       -0.10982
      3 C3         -1.6064   -1.1924    1.7637 CT        1 <0>        0.32997
      4 C4          0.1027    0.9245   -1.3162 CT        1 <0>        0.35418
      5 C5          0.3967   -0.4933    0.6300 CT        1 <0>        0.53422
      6 O1         -1.6589   -0.4069    2.9456 OH        1 <0>       -0.62020
      7 O2         -0.7484    2.0215   -1.0013 OH        1 <0>       -0.60450
      8 O3          0.5495    0.6854    1.4253 OH        1 <0>       -0.67897
      9 O4         -0.2771   -1.5285    1.3757 OS        1 <0>       -0.46523
     10 O5         -0.2731   -0.2622   -0.6202 OS        1 <0>       -0.46557
     11 H1         -1.0859    0.3608   -3.0364 HC        1 <0>        0.05560
     12 H2          0.1858    1.5312   -3.3965 HC        1 <0>        0.05560
     13 H3          0.5919   -0.1841   -3.1135 HC        1 <0>        0.05560
     14 H4          1.6952   -1.9917   -0.2741 HC        1 <0>        0.06220
     15 H5          2.4024   -0.3689   -0.2149 HC        1 <0>        0.06220
     16 H6          2.3163   -1.3587    1.2502 HC        1 <0>        0.06220
     17 H7         -2.1214   -2.1323    1.9820 H2        1 <0>        0.07917
     18 H8         -2.1564   -0.6970    0.9562 H2        1 <0>        0.07917
     19 H9          1.1420    1.2033   -1.1157 H2        1 <0>        0.04255
     20 H10        -2.5971   -0.2295    3.1291 HO        1 <0>        0.40821
     21 H11        -0.4546    2.7743   -1.5417 HO        1 <0>        0.41406
     22 H12         0.9916    0.4533    2.2585 HO        1 <0>        0.44397
@<TRIPOS>BOND
     1    1    4 1
     2    2    5 1
     3    3    6 1
     4    3    9 1
     5    4    7 1
     6    4   10 1
     7    5    8 1
     8    5    9 1
     9    5   10 1
    10    1   11 1
    11    1   12 1
    12    1   13 1
    13    2   14 1
    14    2   15 1
    15    2   16 1
    16    3   17 1
    17    3   18 1
    18    4   19 1
    19    6   20 1
    20    7   21 1
    21    8   22 1
@<TRIPOS>SUBSTRUCTURE
     1 <0>         1 GROUP 0 A     ****
