@<TRIPOS>MOLECULE
AlkEthOH_c167
   27    26     1     0     0
SMALL
USER_CHARGES

@<TRIPOS>ATOM
      1 C1          3.0265   -1.2665   -1.1380 CT        1 <0>       -0.08649
      2 C2          2.0816   -1.5575    1.1564 CT        1 <0>       -0.08649
      3 C3          0.6723   -0.5738   -0.6690 CT        1 <0>       -0.08649
      4 C4          4.0280    0.8162    0.8920 CT        1 <0>       -0.07940
      5 C5          4.4206    2.2552    1.2495 CT        1 <0>       -0.08347
      6 C6          2.6279    0.7687    0.2664 CT        1 <0>       -0.06620
      7 C7          5.8184    2.3397    1.8505 CT        1 <0>        0.13115
      8 C8          2.0914   -0.6456   -0.0814 CT        1 <0>       -0.05573
      9 O1          6.1360    3.6906    2.1523 OH        1 <0>       -0.60164
     10 H1          3.0664   -0.6494   -2.0428 HC        1 <0>        0.03383
     11 H2          2.6853   -2.2662   -1.4299 HC        1 <0>        0.03383
     12 H3          4.0494   -1.3630   -0.7568 HC        1 <0>        0.03383
     13 H4          1.4270   -1.1538    1.9374 HC        1 <0>        0.03383
     14 H5          1.7190   -2.5603    0.9051 HC        1 <0>        0.03383
     15 H6          3.0799   -1.6594    1.5941 HC        1 <0>        0.03383
     16 H7         -0.0307   -0.1373    0.0491 HC        1 <0>        0.03383
     17 H8          0.2977   -1.5636   -0.9492 HC        1 <0>        0.03383
     18 H9          0.6516    0.0463   -1.5728 HC        1 <0>        0.03383
     19 H10         4.7674    0.4105    0.1934 HC        1 <0>        0.04075
     20 H11         4.0558    0.1991    1.7961 HC        1 <0>        0.04075
     21 H12         3.6936    2.6523    1.9682 HC        1 <0>        0.05526
     22 H13         4.3791    2.8828    0.3518 HC        1 <0>        0.05526
     23 H14         2.6350    1.3801   -0.6463 HC        1 <0>        0.04111
     24 H15         1.9234    1.2565    0.9536 HC        1 <0>        0.04111
     25 H16         5.8869    1.7472    2.7683 H1        1 <0>        0.01906
     26 H17         6.5565    1.9649    1.1346 H1        1 <0>        0.01906
     27 H18         7.0305    3.6915    2.5304 HO        1 <0>        0.39793
@<TRIPOS>BOND
     1    1    8 1
     2    2    8 1
     3    3    8 1
     4    4    5 1
     5    4    6 1
     6    5    7 1
     7    6    8 1
     8    7    9 1
     9    1   10 1
    10    1   11 1
    11    1   12 1
    12    2   13 1
    13    2   14 1
    14    2   15 1
    15    3   16 1
    16    3   17 1
    17    3   18 1
    18    4   19 1
    19    4   20 1
    20    5   21 1
    21    5   22 1
    22    6   23 1
    23    6   24 1
    24    7   25 1
    25    7   26 1
    26    9   27 1
@<TRIPOS>SUBSTRUCTURE
     1 <0>         1 GROUP 0 A     ****
