@<TRIPOS>MOLECULE
AlkEthOH_r897
   27    27     1     0     0
SMALL
USER_CHARGES

@<TRIPOS>ATOM
      1 C1         -0.3107    0.8996   -0.5426 CT        1 <0>       -0.07148
      2 C2         -0.1374    0.7347   -2.0528 CT        1 <0>       -0.07292
      3 C3         -1.7095    1.3380   -0.1046 CT        1 <0>       -0.07292
      4 C4         -0.1471   -0.7104   -2.5489 CT        1 <0>       -0.07042
      5 C5         -2.8393    0.3222   -0.2873 CT        1 <0>       -0.07042
      6 C6         -1.2407   -1.6315   -2.0119 CT        1 <0>       -0.06929
      7 C7         -3.2207    0.0543   -1.7445 CT        1 <0>       -0.06929
      8 C8         -2.6996   -1.2695   -2.3298 CT        1 <0>       -0.05777
      9 C9         -2.9723   -1.3113   -3.8370 CT        1 <0>       -0.09026
     10 H1         -0.0003   -0.0000   -0.0002 HC        1 <0>        0.03730
     11 H2          0.3787    1.6911   -0.2189 HC        1 <0>        0.03730
     12 H3         -0.8640    1.3383   -2.6049 HC        1 <0>        0.03547
     13 H4          0.8404    1.1534   -2.3280 HC        1 <0>        0.03547
     14 H5         -1.6572    1.5822    0.9647 HC        1 <0>        0.03547
     15 H6         -1.9742    2.2743   -0.6121 HC        1 <0>        0.03547
     16 H7         -0.1675   -0.7063   -3.6453 HC        1 <0>        0.03610
     17 H8          0.8168   -1.1617   -2.2778 HC        1 <0>        0.03610
     18 H9         -2.6216   -0.6047    0.2538 HC        1 <0>        0.03610
     19 H10        -3.7225    0.7487    0.2076 HC        1 <0>        0.03610
     20 H11        -1.0495   -2.6313   -2.4264 HC        1 <0>        0.03689
     21 H12        -1.1170   -1.7591   -0.9311 HC        1 <0>        0.03689
     22 H13        -4.3182    0.0095   -1.7946 HC        1 <0>        0.03689
     23 H14        -2.9520    0.9047   -2.3800 HC        1 <0>        0.03689
     24 H15        -3.3076   -2.0680   -1.8805 HC        1 <0>        0.03811
     25 H16        -2.3925   -0.5373   -4.3336 HC        1 <0>        0.03274
     26 H17        -4.0304   -1.1427   -4.0204 HC        1 <0>        0.03274
     27 H18        -2.6883   -2.2837   -4.2316 HC        1 <0>        0.03274
@<TRIPOS>BOND
     1    1    2 1
     2    1    3 1
     3    2    4 1
     4    3    5 1
     5    4    6 1
     6    5    7 1
     7    6    8 1
     8    7    8 1
     9    8    9 1
    10    1   10 1
    11    1   11 1
    12    2   12 1
    13    2   13 1
    14    3   14 1
    15    3   15 1
    16    4   16 1
    17    4   17 1
    18    5   18 1
    19    5   19 1
    20    6   20 1
    21    6   21 1
    22    7   22 1
    23    7   23 1
    24    8   24 1
    25    9   25 1
    26    9   26 1
    27    9   27 1
@<TRIPOS>SUBSTRUCTURE
     1 <0>         1 GROUP 0 A     ****
