@<TRIPOS>MOLECULE
AlkEthOH_r653
   30    30     1     0     0
SMALL
USER_CHARGES

@<TRIPOS>ATOM
      1 C1          0.6368   -1.8732    1.5188 CT        1 <0>        0.11289
      2 C2          0.9201   -0.4211    1.8698 CT        1 <0>        0.10551
      3 C3         -0.5383   -1.5216   -0.5475 CT        1 <0>        0.10733
      4 C4         -0.1495   -0.2895   -1.3865 CT        1 <0>        0.14686
      5 C5         -0.2275    1.2798    0.5844 CT        1 <0>        0.35413
      6 C6          1.0154   -0.6587   -2.3284 CT        1 <0>       -0.10214
      7 C7         -1.3245    0.1503   -2.2719 CT        1 <0>       -0.10214
      8 C8          0.6296    2.4795    1.0244 CT        1 <0>       -0.10748
      9 C9         -1.6584    1.7887    0.3974 CT        1 <0>       -0.10748
     10 O1          0.5999   -2.0806    0.1091 OS        1 <0>       -0.41410
     11 O2         -0.2683    0.3353    1.6602 OS        1 <0>       -0.46417
     12 O3          0.3648    0.8113   -0.6299 OS        1 <0>       -0.44589
     13 H1          1.4496   -2.4977    1.9035 H1        1 <0>        0.05350
     14 H2         -0.2991   -2.2274    1.9661 H1        1 <0>        0.05350
     15 H3          1.1607   -0.3471    2.9349 H1        1 <0>        0.05792
     16 H4          1.7705   -0.0392    1.2961 H1        1 <0>        0.05792
     17 H5         -1.3480   -1.3085    0.1588 H1        1 <0>        0.05586
     18 H6         -0.9169   -2.3042   -1.2162 H1        1 <0>        0.05586
     19 H7          1.2844    0.2113   -2.9157 HC        1 <0>        0.04519
     20 H8          0.6995   -1.4622   -2.9831 HC        1 <0>        0.04519
     21 H9          1.8628   -0.9788   -1.7339 HC        1 <0>        0.04519
     22 H10        -1.0318    1.0186   -2.8548 HC        1 <0>        0.04519
     23 H11        -2.1739    0.4038   -1.6445 HC        1 <0>        0.04519
     24 H12        -1.5960   -0.6613   -2.9405 HC        1 <0>        0.04519
     25 H13         1.6547    2.1537    1.1667 HC        1 <0>        0.05183
     26 H14         0.2392    2.8754    1.9560 HC        1 <0>        0.05183
     27 H15         0.5927    3.2459    0.2573 HC        1 <0>        0.05183
     28 H16        -2.3009    0.9684    0.0848 HC        1 <0>        0.05183
     29 H17        -1.6740    2.5665   -0.3628 HC        1 <0>        0.05183
     30 H18        -2.0277    2.1963    1.3360 HC        1 <0>        0.05183
@<TRIPOS>BOND
     1    1    2 1
     2    1   10 1
     3    2   11 1
     4    3    4 1
     5    3   10 1
     6    4    6 1
     7    4    7 1
     8    4   12 1
     9    5    8 1
    10    5    9 1
    11    5   11 1
    12    5   12 1
    13    1   13 1
    14    1   14 1
    15    2   15 1
    16    2   16 1
    17    3   17 1
    18    3   18 1
    19    6   19 1
    20    6   20 1
    21    6   21 1
    22    7   22 1
    23    7   23 1
    24    7   24 1
    25    8   25 1
    26    8   26 1
    27    8   27 1
    28    9   28 1
    29    9   29 1
    30    9   30 1
@<TRIPOS>SUBSTRUCTURE
     1 <0>         1 GROUP 0 A     ****
