@<TRIPOS>MOLECULE
AlkEthOH_r278
   25    25     1     0     0
SMALL
USER_CHARGES

@<TRIPOS>ATOM
      1 C1         -0.3485    1.0625   -0.2586 CT        1 <0>       -0.13600
      2 C2          1.2788   -1.0179    1.3308 CT        1 <0>        0.10504
      3 C3          1.7873   -0.8643   -0.0911 CT        1 <0>        0.10504
      4 C4         -0.6436    0.4548    1.1259 CT        1 <0>        0.35454
      5 C5          0.0055    0.0829   -1.4022 CT        1 <0>        0.35454
      6 C6         -1.3130    1.5249    1.9984 CT        1 <0>       -0.11751
      7 C7         -1.2586   -0.4231   -2.1056 CT        1 <0>       -0.11751
      8 O1          0.5804    0.1298    1.7980 OS        1 <0>       -0.42577
      9 O2          0.7123   -1.0858   -0.9938 OS        1 <0>       -0.42577
     10 O3         -1.5340   -0.6508    1.0163 OH        1 <0>       -0.61761
     11 O4          0.7333    0.7868   -2.4181 OH        1 <0>       -0.61761
     12 H1         -1.2031    1.6675   -0.5919 HC        1 <0>        0.06937
     13 H2          0.4777    1.7794   -0.1443 HC        1 <0>        0.06937
     14 H3          0.6406   -1.9020    1.4381 H1        1 <0>        0.06107
     15 H4          2.1353   -1.1474    2.0006 H1        1 <0>        0.06107
     16 H5          2.2695    0.1039   -0.2646 H1        1 <0>        0.06107
     17 H6          2.5248   -1.6489   -0.2883 H1        1 <0>        0.06107
     18 H7         -1.5273    1.1102    2.9794 HC        1 <0>        0.05581
     19 H8         -2.2395    1.8459    1.5306 HC        1 <0>        0.05581
     20 H9         -0.6459    2.3761    2.1028 HC        1 <0>        0.05581
     21 H10        -0.9807   -1.1076   -2.9023 HC        1 <0>        0.05581
     22 H11        -1.8016    0.4192   -2.5252 HC        1 <0>        0.05581
     23 H12        -1.8902   -0.9399   -1.3883 HC        1 <0>        0.05581
     24 H13        -1.6760   -0.9831    1.9166 HO        1 <0>        0.41037
     25 H14         0.1461    1.4902   -2.7269 HO        1 <0>        0.41037
@<TRIPOS>BOND
     1    1    4 1
     2    1    5 1
     3    2    3 1
     4    2    8 1
     5    3    9 1
     6    4    6 1
     7    4    8 1
     8    4   10 1
     9    5    7 1
    10    5    9 1
    11    5   11 1
    12    1   12 1
    13    1   13 1
    14    2   14 1
    15    2   15 1
    16    3   16 1
    17    3   17 1
    18    6   18 1
    19    6   19 1
    20    6   20 1
    21    7   21 1
    22    7   22 1
    23    7   23 1
    24   10   24 1
    25   11   25 1
@<TRIPOS>SUBSTRUCTURE
     1 <0>         1 GROUP 0 A     ****
