@<TRIPOS>MOLECULE
AlkEthOH_c687
   23    22     1     0     0
SMALL
USER_CHARGES

@<TRIPOS>ATOM
      1 C1         -0.5965    1.6069    1.9574 CT        1 <0>       -0.12865
      2 C2          0.7632   -3.4925    0.6006 CT        1 <0>        0.11500
      3 C3          0.5591    0.6419   -0.0622 CT        1 <0>       -0.10203
      4 C4          0.2634   -1.7719   -0.9201 CT        1 <0>        0.12880
      5 C5         -0.7205    0.6506    0.7779 CT        1 <0>        0.14324
      6 C6          0.5189   -0.3068   -1.2693 CT        1 <0>        0.14889
      7 O1         -1.8127    1.0638   -0.0375 OH        1 <0>       -0.60749
      8 O2          1.7843   -0.2054   -1.9279 OH        1 <0>       -0.59944
      9 O3          0.9950   -2.1369    0.2434 OS        1 <0>       -0.41742
     10 H1         -0.3792    2.6257    1.6225 HC        1 <0>        0.04338
     11 H2          0.2055    1.2836    2.6297 HC        1 <0>        0.04338
     12 H3         -1.5173    1.6194    2.5510 HC        1 <0>        0.04338
     13 H4          1.3393   -3.7378    1.4961 H1        1 <0>        0.03216
     14 H5          1.0592   -4.1437   -0.2257 H1        1 <0>        0.03216
     15 H6         -0.3012   -3.6290    0.8061 H1        1 <0>        0.03216
     16 H7          0.7481    1.6538   -0.4468 HC        1 <0>        0.06013
     17 H8          1.4237    0.4045    0.5708 HC        1 <0>        0.06013
     18 H9          0.5908   -2.4241   -1.7366 H1        1 <0>        0.03987
     19 H10        -0.7993   -1.9519   -0.7325 H1        1 <0>        0.03987
     20 H11        -0.9374   -0.3550    1.1528 H1        1 <0>        0.04189
     21 H12        -0.2393    0.0328   -1.9838 H1        1 <0>        0.05183
     22 H13        -2.6040    1.0332    0.5227 HO        1 <0>        0.39923
     23 H14         1.8774    0.7206   -2.1956 HO        1 <0>        0.39953
@<TRIPOS>BOND
     1    1    5 1
     2    2    9 1
     3    3    5 1
     4    3    6 1
     5    4    6 1
     6    4    9 1
     7    5    7 1
     8    6    8 1
     9    1   10 1
    10    1   11 1
    11    1   12 1
    12    2   13 1
    13    2   14 1
    14    2   15 1
    15    3   16 1
    16    3   17 1
    17    4   18 1
    18    4   19 1
    19    5   20 1
    20    6   21 1
    21    7   22 1
    22    8   23 1
@<TRIPOS>SUBSTRUCTURE
     1 <0>         1 GROUP 0 A     ****
