@<TRIPOS>MOLECULE
AlkEthOH_c932
   21    20     1     0     0
SMALL
USER_CHARGES

@<TRIPOS>ATOM
      1 C1         -0.6454    0.3354    0.8029 CT        1 <0>       -0.08979
      2 C2         -2.1689   -0.4444   -1.7717 CT        1 <0>       -0.10286
      3 C3         -4.0814    0.9472   -0.9518 CT        1 <0>       -0.10286
      4 C4         -3.9192   -0.4823    1.4583 CT        1 <0>        0.11649
      5 C5         -1.8896    1.0450    0.2809 CT        1 <0>       -0.09935
      6 C6         -2.8429    0.1483   -0.5334 CT        1 <0>        0.14967
      7 O1         -3.2783   -0.9433    0.2800 OS        1 <0>       -0.41910
      8 H1         -0.9363   -0.5295    1.4083 HC        1 <0>        0.03741
      9 H2         -0.0456    0.9936    1.4379 HC        1 <0>        0.03741
     10 H3         -0.0168   -0.0258   -0.0166 HC        1 <0>        0.03741
     11 H4         -1.2780   -1.0231   -1.5075 HC        1 <0>        0.04328
     12 H5         -2.8545   -1.0891   -2.3317 HC        1 <0>        0.04328
     13 H6         -1.8702    0.3487   -2.4675 HC        1 <0>        0.04328
     14 H7         -4.5890    1.3863   -0.0869 HC        1 <0>        0.04328
     15 H8         -3.8108    1.7535   -1.6432 HC        1 <0>        0.04328
     16 H9         -4.7957    0.3107   -1.4865 HC        1 <0>        0.04328
     17 H10        -4.2400   -1.3377    2.0579 H1        1 <0>        0.03101
     18 H11        -4.7824    0.1312    1.1884 H1        1 <0>        0.03101
     19 H12        -3.2128    0.1196    2.0349 H1        1 <0>        0.03101
     20 H13        -1.5798    1.9073   -0.3223 HC        1 <0>        0.04143
     21 H14        -2.4272    1.4407    1.1525 HC        1 <0>        0.04143
@<TRIPOS>BOND
     1    1    5 1
     2    2    6 1
     3    3    6 1
     4    4    7 1
     5    5    6 1
     6    6    7 1
     7    1    8 1
     8    1    9 1
     9    1   10 1
    10    2   11 1
    11    2   12 1
    12    2   13 1
    13    3   14 1
    14    3   15 1
    15    3   16 1
    16    4   17 1
    17    4   18 1
    18    4   19 1
    19    5   20 1
    20    5   21 1
@<TRIPOS>SUBSTRUCTURE
     1 <0>         1 GROUP 0 A     ****
