@<TRIPOS>MOLECULE
AlkEthOH_c513
   28    27     1     0     0
SMALL
USER_CHARGES

@<TRIPOS>ATOM
      1 C1         -1.3754   -1.8310    4.5718 CT        1 <0>       -0.10500
      2 C2         -2.6568    0.0661    3.5179 CT        1 <0>       -0.10500
      3 C3         -0.4921    0.1122    0.9716 CT        1 <0>       -0.09791
      4 C4          1.6723    0.5912    2.1500 CT        1 <0>       -0.09791
      5 C5          2.1851   -3.3414    0.9289 CT        1 <0>        0.11601
      6 C6          0.7921   -1.7855    2.0067 CT        1 <0>        0.10000
      7 C7         -1.4585   -0.8634    3.4011 CT        1 <0>        0.13389
      8 C8          0.4298   -0.2995    2.1208 CT        1 <0>        0.15718
      9 O1          1.8456   -1.9690    1.0676 OS        1 <0>       -0.41669
     10 O2         -0.2710   -0.0901    3.3496 OS        1 <0>       -0.42308
     11 H1         -1.3093   -1.2969    5.5245 HC        1 <0>        0.04165
     12 H2         -2.2584   -2.4787    4.5941 HC        1 <0>        0.04165
     13 H3         -0.5049   -2.4897    4.4781 HC        1 <0>        0.04165
     14 H4         -2.6213    0.6455    4.4456 HC        1 <0>        0.04165
     15 H5         -3.5887   -0.5092    3.5001 HC        1 <0>        0.04165
     16 H6         -2.7003    0.7613    2.6722 HC        1 <0>        0.04165
     17 H7         -1.3862   -0.5210    0.9424 HC        1 <0>        0.04734
     18 H8         -0.8084    1.1564    1.0628 HC        1 <0>        0.04734
     19 H9          0.0077   -0.0148    0.0045 HC        1 <0>        0.04734
     20 H10         2.3454    0.3108    2.9678 HC        1 <0>        0.04734
     21 H11         1.3962    1.6368    2.3298 HC        1 <0>        0.04734
     22 H12         2.2270    0.5381    1.2076 HC        1 <0>        0.04734
     23 H13         2.9948   -3.4456    0.2025 H1        1 <0>        0.03358
     24 H14         1.3083   -3.9027    0.5963 H1        1 <0>        0.03358
     25 H15         2.5155   -3.7254    1.8970 H1        1 <0>        0.03358
     26 H16         1.1389   -2.1760    2.9697 H1        1 <0>        0.03278
     27 H17        -0.0689   -2.3748    1.6736 H1        1 <0>        0.03278
     28 H18        -1.5234   -1.4274    2.4648 H1        1 <0>        0.03827
@<TRIPOS>BOND
     1    1    7 1
     2    2    7 1
     3    3    8 1
     4    4    8 1
     5    5    9 1
     6    6    8 1
     7    6    9 1
     8    7   10 1
     9    8   10 1
    10    1   11 1
    11    1   12 1
    12    1   13 1
    13    2   14 1
    14    2   15 1
    15    2   16 1
    16    3   17 1
    17    3   18 1
    18    3   19 1
    19    4   20 1
    20    4   21 1
    21    4   22 1
    22    5   23 1
    23    5   24 1
    24    5   25 1
    25    6   26 1
    26    6   27 1
    27    7   28 1
@<TRIPOS>SUBSTRUCTURE
     1 <0>         1 GROUP 0 A     ****
