@<TRIPOS>MOLECULE
AlkEthOH_r527
   18    18     1     0     0
SMALL
USER_CHARGES

@<TRIPOS>ATOM
      1 C1          1.2132   -0.1456   -0.6735 CT        1 <0>       -0.10391
      2 C2          0.6524   -1.5557   -0.6737 CT        1 <0>        0.13312
      3 C3         -1.0004   -0.1151    0.1423 CT        1 <0>        0.30860
      4 C4          0.3603    0.5363    0.3790 CT        1 <0>        0.12777
      5 C5          0.3830    2.0549    0.2945 CT        1 <0>       -0.10857
      6 O1         -0.7161   -1.4703   -0.2503 OS        1 <0>       -0.45717
      7 O2         -1.7109    0.5517   -0.8937 OH        1 <0>       -0.62200
      8 O3          0.8186    0.1438    1.6754 OH        1 <0>       -0.59339
      9 H1          2.2848   -0.1425   -0.4529 HC        1 <0>        0.07163
     10 H2          1.0583    0.3096   -1.6591 HC        1 <0>        0.07163
     11 H3          0.7031   -2.0237   -1.6610 H1        1 <0>        0.05725
     12 H4          1.1824   -2.1954    0.0398 H1        1 <0>        0.05725
     13 H5         -1.6166   -0.1357    1.0475 H2        1 <0>        0.06522
     14 H6         -0.2472    2.4835    1.0750 HC        1 <0>        0.05284
     15 H7          0.0110    2.3821   -0.6773 HC        1 <0>        0.05284
     16 H8          1.4019    2.4225    0.4234 HC        1 <0>        0.05284
     17 H9         -2.5595    0.0909   -0.9918 HO        1 <0>        0.42931
     18 H10         0.2503    0.5991    2.3140 HO        1 <0>        0.40474
@<TRIPOS>BOND
     1    1    2 1
     2    1    4 1
     3    2    6 1
     4    3    4 1
     5    3    6 1
     6    3    7 1
     7    4    5 1
     8    4    8 1
     9    1    9 1
    10    1   10 1
    11    2   11 1
    12    2   12 1
    13    3   13 1
    14    5   14 1
    15    5   15 1
    16    5   16 1
    17    7   17 1
    18    8   18 1
@<TRIPOS>SUBSTRUCTURE
     1 <0>         1 GROUP 0 A     ****
