@<TRIPOS>MOLECULE
AlkEthOH_r773
   18    18     1     0     0
SMALL
USER_CHARGES

@<TRIPOS>ATOM
      1 C1          0.9331   -0.3372    0.3978 CT        1 <0>       -0.08916
      2 C2         -0.8794    0.4250   -0.4345 CT        1 <0>       -0.08912
      3 C3         -0.0116    0.8299    0.7850 CT        1 <0>       -0.08478
      4 C4          0.4027   -0.1912   -1.0518 CT        1 <0>       -0.08478
      5 C5         -0.6719    0.7450    2.1452 CT        1 <0>       -0.08191
      6 C6          0.2271   -1.4714   -1.8416 CT        1 <0>       -0.08191
      7 H1          2.0007   -0.1416    0.5305 HC        1 <0>        0.04892
      8 H2          0.6878   -1.2940    0.8745 HC        1 <0>        0.04892
      9 H3         -1.6667   -0.3036   -0.2064 HC        1 <0>        0.04892
     10 H4         -1.3195    1.2544   -0.9949 HC        1 <0>        0.04892
     11 H5          0.4663    1.8099    0.6431 HC        1 <0>        0.05461
     12 H6          0.9777    0.5478   -1.6279 HC        1 <0>        0.05461
     13 H7         -1.1449   -0.2313    2.2799 HC        1 <0>        0.03446
     14 H8         -1.4381    1.5180    2.2466 HC        1 <0>        0.03446
     15 H9          0.0678    0.8840    2.9381 HC        1 <0>        0.03446
     16 H10        -0.3452   -2.2015   -1.2633 HC        1 <0>        0.03446
     17 H11         1.2000   -1.9071   -2.0838 HC        1 <0>        0.03446
     18 H12        -0.3063   -1.2739   -2.7752 HC        1 <0>        0.03446
@<TRIPOS>BOND
     1    1    3 1
     2    1    4 1
     3    2    3 1
     4    2    4 1
     5    3    5 1
     6    4    6 1
     7    1    7 1
     8    1    8 1
     9    2    9 1
    10    2   10 1
    11    3   11 1
    12    4   12 1
    13    5   13 1
    14    5   14 1
    15    5   15 1
    16    6   16 1
    17    6   17 1
    18    6   18 1
@<TRIPOS>SUBSTRUCTURE
     1 <0>         1 GROUP 0 A     ****
