@<TRIPOS>MOLECULE
AlkEthOH_c845
   30    29     1     0     0
SMALL
USER_CHARGES

@<TRIPOS>ATOM
      1 C1         -2.3468    0.7816    2.3878 CT        1 <0>       -0.12192
      2 C2          2.2525   -0.5451    0.4554 CT        1 <0>       -0.10296
      3 C3          1.8437   -2.6515   -0.8354 CT        1 <0>       -0.10296
      4 C4         -1.5696    0.8271   -1.8461 CT        1 <0>       -0.15561
      5 C5          0.3335   -0.6888   -1.2628 CT        1 <0>       -0.08954
      6 C6         -1.8330    1.3022    1.0530 CT        1 <0>        0.33274
      7 C7          1.1827   -1.4245   -0.1927 CT        1 <0>        0.16775
      8 C8         -0.4620    0.5663   -0.8150 CT        1 <0>        0.35678
      9 O1         -1.1145    2.5141    1.2625 OH        1 <0>       -0.63504
     10 O2          0.3110   -1.9029    0.8352 OH        1 <0>       -0.60814
     11 O3          0.4437    1.6696   -0.8172 OH        1 <0>       -0.61081
     12 O4         -1.0207    0.2837    0.4723 OS        1 <0>       -0.48318
     13 H1         -1.5156    0.5464    3.0601 HC        1 <0>        0.05640
     14 H2         -2.9650   -0.1109    2.2492 HC        1 <0>        0.05640
     15 H3         -2.9646    1.5369    2.8868 HC        1 <0>        0.05640
     16 H4          1.8157    0.3419    0.9250 HC        1 <0>        0.04519
     17 H5          2.9831   -0.2097   -0.2903 HC        1 <0>        0.04519
     18 H6          2.8299   -1.1011    1.2014 HC        1 <0>        0.04519
     19 H7          1.0931   -3.2965   -1.3066 HC        1 <0>        0.04519
     20 H8          2.5795   -2.3624   -1.5929 HC        1 <0>        0.04519
     21 H9          2.3475   -3.2670   -0.0813 HC        1 <0>        0.04519
     22 H10        -2.1618    1.7075   -1.5727 HC        1 <0>        0.05729
     23 H11        -2.2743   -0.0089   -1.9015 HC        1 <0>        0.05729
     24 H12        -1.1530    0.9703   -2.8485 HC        1 <0>        0.05729
     25 H13        -0.3916   -1.4186   -1.6503 HC        1 <0>        0.06285
     26 H14         0.9929   -0.4037   -2.0939 HC        1 <0>        0.06285
     27 H15        -2.6914    1.5243    0.4133 H2        1 <0>        0.07316
     28 H16        -1.7184    3.1617    1.6631 HO        1 <0>        0.41650
     29 H17         0.8652   -2.4091    1.4471 HO        1 <0>        0.41237
     30 H18         0.8247    1.7504   -1.7075 HO        1 <0>        0.41295
@<TRIPOS>BOND
     1    1    6 1
     2    2    7 1
     3    3    7 1
     4    4    8 1
     5    5    7 1
     6    5    8 1
     7    6    9 1
     8    6   12 1
     9    7   10 1
    10    8   11 1
    11    8   12 1
    12    1   13 1
    13    1   14 1
    14    1   15 1
    15    2   16 1
    16    2   17 1
    17    2   18 1
    18    3   19 1
    19    3   20 1
    20    3   21 1
    21    4   22 1
    22    4   23 1
    23    4   24 1
    24    5   25 1
    25    5   26 1
    26    6   27 1
    27    9   28 1
    28   10   29 1
    29   11   30 1
@<TRIPOS>SUBSTRUCTURE
     1 <0>         1 GROUP 0 A     ****
