@<TRIPOS>MOLECULE
AlkEthOH_r869
   25    25     1     0     0
SMALL
USER_CHARGES

@<TRIPOS>ATOM
      1 C1          0.6918    0.7364    1.8092 CT        1 <0>       -0.07136
      2 C2          0.3048    1.7460    0.7282 CT        1 <0>       -0.07128
      3 C3          1.0804   -0.6503    1.2975 CT        1 <0>       -0.10245
      4 C4         -1.0266    1.4106    0.0574 CT        1 <0>       -0.10245
      5 C5          0.0442   -1.2916    0.3721 CT        1 <0>        0.14580
      6 C6         -0.9387    0.3695   -1.0675 CT        1 <0>        0.14580
      7 C7          0.4154   -2.7450    0.0936 CT        1 <0>       -0.09520
      8 C8         -0.6472    1.0378   -2.4094 CT        1 <0>       -0.09520
      9 O1          0.0759   -0.6133   -0.8811 OS        1 <0>       -0.42026
     10 H1          1.5400    1.1408    2.3756 HC        1 <0>        0.04037
     11 H2         -0.1329    0.6364    2.5262 HC        1 <0>        0.04037
     12 H3          0.1990    2.7238    1.2146 HC        1 <0>        0.04037
     13 H4          1.1067    1.8499   -0.0113 HC        1 <0>        0.04037
     14 H5          2.0372   -0.5615    0.7663 HC        1 <0>        0.04488
     15 H6          1.2535   -1.2960    2.1671 HC        1 <0>        0.04488
     16 H7         -1.7255    1.0475    0.8222 HC        1 <0>        0.04488
     17 H8         -1.4809    2.3300   -0.3328 HC        1 <0>        0.04488
     18 H9         -0.9588   -1.2706    0.8157 H1        1 <0>        0.03329
     19 H10        -1.9040   -0.1448   -1.1548 H1        1 <0>        0.03329
     20 H11         1.4096   -2.7955   -0.3485 HC        1 <0>        0.04317
     21 H12        -0.3032   -3.1854   -0.5966 HC        1 <0>        0.04317
     22 H13         0.4102   -3.3135    1.0229 HC        1 <0>        0.04317
     23 H14         0.3067    1.5607   -2.3620 HC        1 <0>        0.04317
     24 H15        -1.4341    1.7526   -2.6446 HC        1 <0>        0.04317
     25 H16        -0.6026    0.2850   -3.1948 HC        1 <0>        0.04317
@<TRIPOS>BOND
     1    1    2 1
     2    1    3 1
     3    2    4 1
     4    3    5 1
     5    4    6 1
     6    5    7 1
     7    5    9 1
     8    6    8 1
     9    6    9 1
    10    1   10 1
    11    1   11 1
    12    2   12 1
    13    2   13 1
    14    3   14 1
    15    3   15 1
    16    4   16 1
    17    4   17 1
    18    5   18 1
    19    6   19 1
    20    7   20 1
    21    7   21 1
    22    7   22 1
    23    8   23 1
    24    8   24 1
    25    8   25 1
@<TRIPOS>SUBSTRUCTURE
     1 <0>         1 GROUP 0 A     ****
