@<TRIPOS>MOLECULE
AlkEthOH_r620
   24    24     1     0     0
SMALL
USER_CHARGES

@<TRIPOS>ATOM
      1 C1         -1.6138    1.2815    0.9958 CT        1 <0>       -0.11007
      2 C2         -1.5277   -0.2155    0.6970 CT        1 <0>       -0.10242
      3 C3         -0.9365    2.1890   -0.0227 CT        1 <0>        0.12742
      4 C4          0.5694    0.7756   -1.1975 CT        1 <0>        0.10253
      5 C5         -0.0954   -0.7479    0.7891 CT        1 <0>        0.15589
      6 C6          0.7373   -0.5846   -0.5028 CT        1 <0>        0.13568
      7 C7          0.4908   -1.6997   -1.5283 CT        1 <0>       -0.11988
      8 O1          0.4247    1.8405   -0.2595 OS        1 <0>       -0.40136
      9 O2         -0.1673   -2.1313    1.1500 OH        1 <0>       -0.59815
     10 O3          2.1184   -0.7077   -0.1210 OH        1 <0>       -0.58842
     11 H1         -2.6686    1.5705    1.0746 HC        1 <0>        0.04936
     12 H2         -1.1664    1.4631    1.9815 HC        1 <0>        0.04936
     13 H3         -2.1537   -0.7399    1.4309 HC        1 <0>        0.04923
     14 H4         -1.9694   -0.4396   -0.2809 HC        1 <0>        0.04923
     15 H5         -1.5010    2.2213   -0.9623 H1        1 <0>        0.04585
     16 H6         -0.9380    3.2114    0.3712 H1        1 <0>        0.04585
     17 H7          1.4677    1.0032   -1.7840 H1        1 <0>        0.04951
     18 H8         -0.2714    0.7656   -1.9021 H1        1 <0>        0.04951
     19 H9          0.4196   -0.2551    1.6259 H1        1 <0>        0.06528
     20 H10         0.6074   -2.6654   -1.0457 HC        1 <0>        0.04939
     21 H11         1.2083   -1.6093   -2.3384 HC        1 <0>        0.04939
     22 H12        -0.5167   -1.6099   -1.9232 HC        1 <0>        0.04939
     23 H13        -0.6198   -2.1638    2.0051 HO        1 <0>        0.40024
     24 H14         2.6237   -0.6532   -0.9424 HO        1 <0>        0.39719
@<TRIPOS>BOND
     1    1    2 1
     2    1    3 1
     3    2    5 1
     4    3    8 1
     5    4    6 1
     6    4    8 1
     7    5    6 1
     8    5    9 1
     9    6    7 1
    10    6   10 1
    11    1   11 1
    12    1   12 1
    13    2   13 1
    14    2   14 1
    15    3   15 1
    16    3   16 1
    17    4   17 1
    18    4   18 1
    19    5   19 1
    20    7   20 1
    21    7   21 1
    22    7   22 1
    23    9   23 1
    24   10   24 1
@<TRIPOS>SUBSTRUCTURE
     1 <0>         1 GROUP 0 A     ****
