@<TRIPOS>MOLECULE
AlkEthOH_c707
   22    21     1     0     0
SMALL
USER_CHARGES

@<TRIPOS>ATOM
      1 C1          1.0586   -0.2919    0.4543 CT        1 <0>       -0.13003
      2 C2         -0.9040    0.2969    6.4928 CT        1 <0>       -0.13003
      3 C3          0.2088    0.2608    2.7622 CT        1 <0>       -0.06971
      4 C4         -0.0435   -0.2515    4.1878 CT        1 <0>       -0.06971
      5 C5          0.7818   -0.8299    1.8517 CT        1 <0>        0.13948
      6 C6         -0.6421    0.8314    5.0911 CT        1 <0>        0.13948
      7 O1          2.0014   -1.3114    2.4092 OH        1 <0>       -0.59864
      8 O2          0.2684    1.9238    5.1780 OH        1 <0>       -0.59864
      9 H1          1.7575    0.5503    0.4995 HC        1 <0>        0.04233
     10 H2          1.4871   -1.0640   -0.1919 HC        1 <0>        0.04233
     11 H3          0.1407    0.0861   -0.0093 HC        1 <0>        0.04233
     12 H4          0.0184   -0.0816    6.9469 HC        1 <0>        0.04233
     13 H5         -1.2701    1.0968    7.1454 HC        1 <0>        0.04233
     14 H6         -1.6459   -0.5073    6.4800 HC        1 <0>        0.04233
     15 H7         -0.7315    0.6346    2.3394 HC        1 <0>        0.05546
     16 H8          0.9104    1.1031    2.8061 HC        1 <0>        0.05546
     17 H9          0.9062   -0.5970    4.6149 HC        1 <0>        0.05546
     18 H10        -0.7218   -1.1124    4.1490 HC        1 <0>        0.05546
     19 H11         0.0819   -1.6709    1.7900 H1        1 <0>        0.02483
     20 H12        -1.5777    1.2035    4.6586 H1        1 <0>        0.02483
     21 H13         2.3170   -2.0136    1.8193 HO        1 <0>        0.39616
     22 H14        -0.1565    2.5944    5.7352 HO        1 <0>        0.39616
@<TRIPOS>BOND
     1    1    5 1
     2    2    6 1
     3    3    4 1
     4    3    5 1
     5    4    6 1
     6    5    7 1
     7    6    8 1
     8    1    9 1
     9    1   10 1
    10    1   11 1
    11    2   12 1
    12    2   13 1
    13    2   14 1
    14    3   15 1
    15    3   16 1
    16    4   17 1
    17    4   18 1
    18    5   19 1
    19    6   20 1
    20    7   21 1
    21    8   22 1
@<TRIPOS>SUBSTRUCTURE
     1 <0>         1 GROUP 0 A     ****
