@<TRIPOS>MOLECULE
AlkEthOH_c931
   18    17     1     0     0
SMALL
USER_CHARGES

@<TRIPOS>ATOM
      1 C1         -0.6454    0.3354    0.8029 CT        1 <0>       -0.08915
      2 C2         -2.1689   -0.4444   -1.7717 CT        1 <0>       -0.12342
      3 C3         -4.0814    0.9472   -0.9518 CT        1 <0>       -0.12342
      4 C4         -1.8896    1.0450    0.2809 CT        1 <0>       -0.06398
      5 C5         -2.8429    0.1483   -0.5334 CT        1 <0>        0.15001
      6 O1         -3.2783   -0.9433    0.2800 OH        1 <0>       -0.59810
      7 H1         -0.9363   -0.5295    1.4083 HC        1 <0>        0.03761
      8 H2         -0.0456    0.9936    1.4379 HC        1 <0>        0.03761
      9 H3         -0.0168   -0.0258   -0.0166 HC        1 <0>        0.03761
     10 H4         -1.2780   -1.0231   -1.5075 HC        1 <0>        0.04168
     11 H5         -2.8545   -1.0891   -2.3317 HC        1 <0>        0.04168
     12 H6         -1.8702    0.3487   -2.4675 HC        1 <0>        0.04168
     13 H7         -4.5890    1.3863   -0.0869 HC        1 <0>        0.04168
     14 H8         -3.8108    1.7535   -1.6432 HC        1 <0>        0.04168
     15 H9         -4.7957    0.3107   -1.4865 HC        1 <0>        0.04168
     16 H10        -1.5798    1.9073   -0.3223 HC        1 <0>        0.04415
     17 H11        -2.4272    1.4407    1.1525 HC        1 <0>        0.04415
     18 H12        -3.8988   -1.4547   -0.2601 HO        1 <0>        0.39685
@<TRIPOS>BOND
     1    1    4 1
     2    2    5 1
     3    3    5 1
     4    4    5 1
     5    5    6 1
     6    1    7 1
     7    1    8 1
     8    1    9 1
     9    2   10 1
    10    2   11 1
    11    2   12 1
    12    3   13 1
    13    3   14 1
    14    3   15 1
    15    4   16 1
    16    4   17 1
    17    6   18 1
@<TRIPOS>SUBSTRUCTURE
     1 <0>         1 GROUP 0 A     ****
