@<TRIPOS>MOLECULE
AlkEthOH_c469
   25    24     1     0     0
SMALL
USER_CHARGES

@<TRIPOS>ATOM
      1 C1         -0.2765   -3.2843   -0.8538 CT        1 <0>       -0.09182
      2 C2          0.0168   -0.9791    0.0745 CT        1 <0>       -0.09182
      3 C3         -1.3371   -1.3378   -7.0754 CT        1 <0>       -0.12533
      4 C4         -0.3808   -1.3238   -2.4187 CT        1 <0>       -0.07899
      5 C5         -1.1136   -2.0995   -3.5067 CT        1 <0>        0.13280
      6 C6         -0.6860   -1.8165   -0.9949 CT        1 <0>       -0.06631
      7 C7         -1.3855   -2.2446   -5.8550 CT        1 <0>        0.33567
      8 O1         -0.7709   -3.4932   -6.1585 OH        1 <0>       -0.62745
      9 O2         -0.7406   -1.5710   -4.7733 OS        1 <0>       -0.41478
     10 H1          0.8000   -3.4056   -1.0148 HC        1 <0>        0.03455
     11 H2         -0.8009   -3.9152   -1.5797 HC        1 <0>        0.03455
     12 H3         -0.5068   -3.6582    0.1495 HC        1 <0>        0.03455
     13 H4          1.1046   -1.0088   -0.0494 HC        1 <0>        0.03455
     14 H5         -0.2191   -1.3525    1.0769 HC        1 <0>        0.03455
     15 H6         -0.3029    0.0666    0.0356 HC        1 <0>        0.03455
     16 H7         -0.3025   -1.1262   -7.3635 HC        1 <0>        0.05337
     17 H8         -1.8220   -1.8165   -7.9336 HC        1 <0>        0.05337
     18 H9         -1.8605   -0.3958   -6.8847 HC        1 <0>        0.05337
     19 H10         0.6985   -1.3957   -2.6079 HC        1 <0>        0.05447
     20 H11        -0.6213   -0.2567   -2.5134 HC        1 <0>        0.05447
     21 H12        -0.8430   -3.1597   -3.4801 H1        1 <0>        0.03566
     22 H13        -2.1983   -2.0026   -3.4059 H1        1 <0>        0.03566
     23 H14        -1.7682   -1.7520   -0.8249 HC        1 <0>        0.04464
     24 H15        -2.4328   -2.4356   -5.5945 H2        1 <0>        0.02627
     25 H16        -1.2577   -3.9013   -6.8941 HO        1 <0>        0.40945
@<TRIPOS>BOND
     1    1    6 1
     2    2    6 1
     3    3    7 1
     4    4    5 1
     5    4    6 1
     6    5    9 1
     7    7    8 1
     8    7    9 1
     9    1   10 1
    10    1   11 1
    11    1   12 1
    12    2   13 1
    13    2   14 1
    14    2   15 1
    15    3   16 1
    16    3   17 1
    17    3   18 1
    18    4   19 1
    19    4   20 1
    20    5   21 1
    21    5   22 1
    22    6   23 1
    23    7   24 1
    24    8   25 1
@<TRIPOS>SUBSTRUCTURE
     1 <0>         1 GROUP 0 A     ****
