@<TRIPOS>MOLECULE
AlkEthOH_c1294
   19    18     1     0     0
SMALL
USER_CHARGES

@<TRIPOS>ATOM
      1 C1          3.4614    2.3807    2.7408 CT        1 <0>        0.11731
      2 C2          0.9511   -0.4136   -0.3581 CT        1 <0>       -0.08427
      3 C3          2.0726    0.6018   -0.1689 CT        1 <0>       -0.08322
      4 C4          0.8321   -0.8559   -1.8096 CT        1 <0>        0.13303
      5 C5          2.2195    1.0117    1.2895 CT        1 <0>        0.12946
      6 O1         -0.2361   -1.7865   -1.9202 OH        1 <0>       -0.60331
      7 O2          3.2860    1.9439    1.3996 OS        1 <0>       -0.42383
      8 H1          4.2875    3.0944    2.7872 H1        1 <0>        0.03261
      9 H2          3.6728    1.5202    3.3805 H1        1 <0>        0.03261
     10 H3          2.5433    2.8670    3.0792 H1        1 <0>        0.03261
     11 H4          1.1231   -1.2921    0.2765 HC        1 <0>        0.05539
     12 H5         -0.0054    0.0113   -0.0286 HC        1 <0>        0.05539
     13 H6          1.8846    1.4936   -0.7797 HC        1 <0>        0.05456
     14 H7          3.0237    0.1885   -0.5274 HC        1 <0>        0.05456
     15 H8          0.6195   -0.0027   -2.4616 H1        1 <0>        0.02231
     16 H9          1.7533   -1.3416   -2.1470 H1        1 <0>        0.02231
     17 H10         2.4482    0.1450    1.9178 H1        1 <0>        0.02643
     18 H11         1.3035    1.4859    1.6562 H1        1 <0>        0.02643
     19 H12        -0.2850   -2.0476   -2.8541 HO        1 <0>        0.39962
@<TRIPOS>BOND
     1    1    7 1
     2    2    3 1
     3    2    4 1
     4    3    5 1
     5    4    6 1
     6    5    7 1
     7    1    8 1
     8    1    9 1
     9    1   10 1
    10    2   11 1
    11    2   12 1
    12    3   13 1
    13    3   14 1
    14    4   15 1
    15    4   16 1
    16    5   17 1
    17    5   18 1
    18    6   19 1
@<TRIPOS>SUBSTRUCTURE
     1 <0>         1 GROUP 0 A     ****
