@<TRIPOS>MOLECULE
AlkEthOH_c876
   27    26     1     0     0
SMALL
USER_CHARGES

@<TRIPOS>ATOM
      1 C1         -0.0445   -1.2786    2.9306 CT        1 <0>       -0.12284
      2 C2          0.2133   -0.2102   -2.2579 CT        1 <0>       -0.11036
      3 C3         -0.4922    2.0465   -3.1056 CT        1 <0>       -0.11036
      4 C4          1.8816    1.6706   -2.3763 CT        1 <0>       -0.11036
      5 C5          0.8925   -0.4661    2.0489 CT        1 <0>        0.34349
      6 C6          0.8528    1.0503    0.1846 CT        1 <0>        0.52824
      7 C7          0.4193    1.2988   -2.1349 CT        1 <0>        0.16401
      8 O1          1.8607   -1.3285    1.4599 OH        1 <0>       -0.62426
      9 O2          1.6471    2.0066    0.8879 OH        1 <0>       -0.63244
     10 O3          0.1004    0.2122    1.0722 OS        1 <0>       -0.49422
     11 O4          0.0622    1.6983   -0.8181 OS        1 <0>       -0.43988
     12 H1         -0.5928   -2.0180    2.3360 HC        1 <0>        0.05470
     13 H2          0.5134   -1.8221    3.6994 HC        1 <0>        0.05470
     14 H3         -0.7868   -0.6322    3.4097 HC        1 <0>        0.05470
     15 H4          0.8659   -0.7505   -1.5627 HC        1 <0>        0.04659
     16 H5         -0.8241   -0.4938   -2.0527 HC        1 <0>        0.04659
     17 H6          0.4754   -0.5600   -3.2630 HC        1 <0>        0.04659
     18 H7         -0.3478    3.1296   -3.0208 HC        1 <0>        0.04659
     19 H8         -1.5469    1.8568   -2.8755 HC        1 <0>        0.04659
     20 H9         -0.3054    1.7520   -4.1434 HC        1 <0>        0.04659
     21 H10         2.0296    2.7530   -2.2882 HC        1 <0>        0.04659
     22 H11         2.5474    1.1717   -1.6647 HC        1 <0>        0.04659
     23 H12         2.1904    1.3980   -3.3920 HC        1 <0>        0.04659
     24 H13         1.4220    0.2603    2.6749 H2        1 <0>        0.08968
     25 H14         1.5604    0.3855   -0.3257 H3        1 <0>        0.10116
     26 H15         2.3631   -1.7560    2.1736 HO        1 <0>        0.40454
     27 H16         2.1257    2.5354    0.2272 HO        1 <0>        0.43019
@<TRIPOS>BOND
     1    1    5 1
     2    2    7 1
     3    3    7 1
     4    4    7 1
     5    5    8 1
     6    5   10 1
     7    6    9 1
     8    6   10 1
     9    6   11 1
    10    7   11 1
    11    1   12 1
    12    1   13 1
    13    1   14 1
    14    2   15 1
    15    2   16 1
    16    2   17 1
    17    3   18 1
    18    3   19 1
    19    3   20 1
    20    4   21 1
    21    4   22 1
    22    4   23 1
    23    5   24 1
    24    6   25 1
    25    8   26 1
    26    9   27 1
@<TRIPOS>SUBSTRUCTURE
     1 <0>         1 GROUP 0 A     ****
