@<TRIPOS>MOLECULE
AlkEthOH_r92
   24    24     1     0     0
SMALL
USER_CHARGES

@<TRIPOS>ATOM
      1 C1          1.2186    1.6121    1.0791 CT        1 <0>       -0.06047
      2 C2          1.6410    0.1435    1.2066 CT        1 <0>       -0.11571
      3 C3         -0.0535    1.9267    0.2831 CT        1 <0>       -0.11982
      4 C4          0.6430   -0.7571    1.9354 CT        1 <0>        0.13594
      5 C5         -0.0088    1.5232   -1.1913 CT        1 <0>        0.14518
      6 C6         -0.6296   -1.6008    0.0818 CT        1 <0>        0.08931
      7 C7         -0.9816   -0.6708   -1.0782 CT        1 <0>        0.31039
      8 O1         -0.6249   -0.8617    1.3000 OS        1 <0>       -0.42017
      9 O2          0.1568    0.1266   -1.4002 OS        1 <0>       -0.46167
     10 O3         -1.3609   -1.4418   -2.2163 OH        1 <0>       -0.60405
     11 H1          1.0954    2.0237    2.0891 HC        1 <0>        0.03620
     12 H2          2.0522    2.1652    0.6276 HC        1 <0>        0.03620
     13 H3          1.8809   -0.2649    0.2213 HC        1 <0>        0.05488
     14 H4          2.5820    0.1186    1.7715 HC        1 <0>        0.05488
     15 H5         -0.9215    1.4823    0.7777 HC        1 <0>        0.05586
     16 H6         -0.2129    3.0117    0.3260 HC        1 <0>        0.05586
     17 H7          1.0642   -1.7600    2.0730 H1        1 <0>        0.04567
     18 H8          0.4635   -0.3524    2.9377 H1        1 <0>        0.04567
     19 H9         -0.9115    1.8661   -1.7112 H1        1 <0>        0.04829
     20 H10         0.8406    2.0203   -1.6725 H1        1 <0>        0.04829
     21 H11        -1.3969   -2.3772    0.1774 H1        1 <0>        0.05695
     22 H12         0.3245   -2.1128   -0.0929 H1        1 <0>        0.05695
     23 H13        -1.8439   -0.0307   -0.8011 H2        1 <0>        0.08889
     24 H14        -0.5983   -1.9974   -2.4400 HO        1 <0>        0.41648
@<TRIPOS>BOND
     1    1    2 1
     2    1    3 1
     3    2    4 1
     4    3    5 1
     5    4    8 1
     6    5    9 1
     7    6    7 1
     8    6    8 1
     9    7    9 1
    10    7   10 1
    11    1   11 1
    12    1   12 1
    13    2   13 1
    14    2   14 1
    15    3   15 1
    16    3   16 1
    17    4   17 1
    18    4   18 1
    19    5   19 1
    20    5   20 1
    21    6   21 1
    22    6   22 1
    23    7   23 1
    24   10   24 1
@<TRIPOS>SUBSTRUCTURE
     1 <0>         1 GROUP 0 A     ****
