@<TRIPOS>MOLECULE
AlkEthOH_c1107
   19    18     1     0     0
SMALL
USER_CHARGES

@<TRIPOS>ATOM
      1 C1          0.9674   -0.4093    0.3180 CT        1 <0>       -0.09291
      2 C2          2.0995    0.4632   -0.2015 CT        1 <0>       -0.07842
      3 C3          3.4677   -0.1397    0.1302 CT        1 <0>       -0.11230
      4 C4          5.9710    0.1590    0.0535 CT        1 <0>        0.09739
      5 C5          4.6208    0.7469   -0.3481 CT        1 <0>        0.13702
      6 O1          7.0219    1.0016   -0.4080 OH        1 <0>       -0.58624
      7 O2          4.4880    2.0370    0.2481 OH        1 <0>       -0.57852
      8 H1          1.0257   -1.4187   -0.1019 HC        1 <0>        0.03276
      9 H2          1.0218   -0.4912    1.4081 HC        1 <0>        0.03276
     10 H3         -0.0071    0.0160    0.0577 HC        1 <0>        0.03276
     11 H4          2.0087    1.4627    0.2389 HC        1 <0>        0.04957
     12 H5          1.9967    0.5758   -1.2871 HC        1 <0>        0.04957
     13 H6          3.5496   -1.1304   -0.3329 HC        1 <0>        0.04247
     14 H7          3.5355   -0.2763    1.2171 HC        1 <0>        0.04247
     15 H8          6.1212   -0.8363   -0.3764 H1        1 <0>        0.02425
     16 H9          6.0631    0.0913    1.1422 H1        1 <0>        0.02425
     17 H10         4.5720    0.8822   -1.4346 H1        1 <0>        0.09185
     18 H11         7.8533    0.5865   -0.1292 HO        1 <0>        0.39812
     19 H12         4.5237    1.9008    1.2070 HO        1 <0>        0.39315
@<TRIPOS>BOND
     1    1    2 1
     2    2    3 1
     3    3    5 1
     4    4    5 1
     5    4    6 1
     6    5    7 1
     7    1    8 1
     8    1    9 1
     9    1   10 1
    10    2   11 1
    11    2   12 1
    12    3   13 1
    13    3   14 1
    14    4   15 1
    15    4   16 1
    16    5   17 1
    17    6   18 1
    18    7   19 1
@<TRIPOS>SUBSTRUCTURE
     1 <0>         1 GROUP 0 A     ****
