@<TRIPOS>MOLECULE
AlkEthOH_r768
   21    21     1     0     0
SMALL
USER_CHARGES

@<TRIPOS>ATOM
      1 C1          0.8436    1.2168    1.4309 CT        1 <0>        0.09453
      2 C2          0.3329    1.9244    0.1917 CT        1 <0>        0.10068
      3 C3          0.0136   -0.8407    0.6235 CT        1 <0>        0.13767
      4 C4         -0.5387   -0.1326   -0.6334 CT        1 <0>        0.30777
      5 C5          0.4486   -2.2834    0.3873 CT        1 <0>       -0.08834
      6 C6         -1.8629   -0.7497   -1.0875 CT        1 <0>       -0.11158
      7 O1          1.1688   -0.1336    1.1045 OS        1 <0>       -0.39854
      8 O2         -0.8131    1.2429   -0.3176 OS        1 <0>       -0.45222
      9 O3          0.4072   -0.2442   -1.6993 OH        1 <0>       -0.60472
     10 H1          1.7473    1.7052    1.8070 H1        1 <0>        0.05585
     11 H2          0.0935    1.2193    2.2301 H1        1 <0>        0.05585
     12 H3          0.0392    2.9507    0.4312 H1        1 <0>        0.06152
     13 H4          1.1011    1.9651   -0.5886 H1        1 <0>        0.06152
     14 H5         -0.7378   -0.8261    1.4241 H1        1 <0>        0.04581
     15 H6          1.1956   -2.3209   -0.4049 HC        1 <0>        0.05236
     16 H7         -0.4100   -2.8867    0.0944 HC        1 <0>        0.05236
     17 H8          0.8778   -2.6958    1.2998 HC        1 <0>        0.05236
     18 H9         -2.2249   -0.2304   -1.9723 HC        1 <0>        0.05492
     19 H10        -2.6003   -0.6609   -0.2926 HC        1 <0>        0.05492
     20 H11        -1.7151   -1.8013   -1.3240 HC        1 <0>        0.05492
     21 H12         0.0163    0.2125   -2.4587 HO        1 <0>        0.41236
@<TRIPOS>BOND
     1    1    2 1
     2    1    7 1
     3    2    8 1
     4    3    4 1
     5    3    5 1
     6    3    7 1
     7    4    6 1
     8    4    8 1
     9    4    9 1
    10    1   10 1
    11    1   11 1
    12    2   12 1
    13    2   13 1
    14    3   14 1
    15    5   15 1
    16    5   16 1
    17    5   17 1
    18    6   18 1
    19    6   19 1
    20    6   20 1
    21    9   21 1
@<TRIPOS>SUBSTRUCTURE
     1 <0>         1 GROUP 0 A     ****
