@<TRIPOS>MOLECULE
AlkEthOH_r267
   33    33     1     0     0
SMALL
USER_CHARGES

@<TRIPOS>ATOM
      1 C1         -1.4168    1.4349   -1.9330 CT        1 <0>       -0.07785
      2 C2         -1.8359   -0.0335   -2.1406 CT        1 <0>       -0.08632
      3 C3          1.3809   -0.3830    0.6513 CT        1 <0>       -0.14561
      4 C4         -0.0848    1.6381   -1.2107 CT        1 <0>        0.13374
      5 C5         -1.6104   -0.9420   -0.9334 CT        1 <0>        0.15394
      6 C6          0.8308    1.0368    0.9759 CT        1 <0>        0.16689
      7 C7          0.3691   -1.5246    0.3717 CT        1 <0>        0.37062
      8 C8          1.9576    2.0768    0.8363 CT        1 <0>       -0.10821
      9 C9          0.3252    1.1007    2.4279 CT        1 <0>       -0.10821
     10 C10         1.1473   -2.8390    0.2252 CT        1 <0>       -0.12775
     11 O1         -0.2985    1.3866    0.1747 OS        1 <0>       -0.41796
     12 O2         -0.2296   -1.2845   -0.9058 OS        1 <0>       -0.43877
     13 O3         -0.5349   -1.6671    1.4604 OH        1 <0>       -0.61224
     14 H1         -1.3725    1.9173   -2.9165 HC        1 <0>        0.04714
     15 H2         -2.2094    1.9364   -1.3632 HC        1 <0>        0.04714
     16 H3         -2.8985   -0.0464   -2.4099 HC        1 <0>        0.04695
     17 H4         -1.2795   -0.4303   -2.9992 HC        1 <0>        0.04695
     18 H5          2.0231   -0.2988   -0.2366 HC        1 <0>        0.05502
     19 H6          2.0394   -0.6816    1.4787 HC        1 <0>        0.05502
     20 H7          0.6909    0.9974   -1.6406 H1        1 <0>        0.03303
     21 H8          0.2289    2.6817   -1.3203 H1        1 <0>        0.03303
     22 H9         -1.9548   -0.4505   -0.0182 H1        1 <0>        0.05376
     23 H10        -2.1766   -1.8712   -1.0557 H1        1 <0>        0.05376
     24 H11         1.5644    3.0616    1.0643 HC        1 <0>        0.04426
     25 H12         2.3351    2.0595   -0.1803 HC        1 <0>        0.04426
     26 H13         2.7565    1.8322    1.5281 HC        1 <0>        0.04426
     27 H14        -0.0527    2.0970    2.6313 HC        1 <0>        0.04426
     28 H15         1.1450    0.8758    3.1020 HC        1 <0>        0.04426
     29 H16        -0.4689    0.3737    2.5622 HC        1 <0>        0.04426
     30 H17         0.4527   -3.6509    0.0286 HC        1 <0>        0.04899
     31 H18         1.6910   -3.0420    1.1435 HC        1 <0>        0.04899
     32 H19         1.8486   -2.7543   -0.6002 HC        1 <0>        0.04899
     33 H20         0.0008   -1.8749    2.2426 HO        1 <0>        0.41340
@<TRIPOS>BOND
     1    1    2 1
     2    1    4 1
     3    2    5 1
     4    3    6 1
     5    3    7 1
     6    4   11 1
     7    5   12 1
     8    6    8 1
     9    6    9 1
    10    6   11 1
    11    7   10 1
    12    7   12 1
    13    7   13 1
    14    1   14 1
    15    1   15 1
    16    2   16 1
    17    2   17 1
    18    3   18 1
    19    3   19 1
    20    4   20 1
    21    4   21 1
    22    5   22 1
    23    5   23 1
    24    8   24 1
    25    8   25 1
    26    8   26 1
    27    9   27 1
    28    9   28 1
    29    9   29 1
    30   10   30 1
    31   10   31 1
    32   10   32 1
    33   13   33 1
@<TRIPOS>SUBSTRUCTURE
     1 <0>         1 GROUP 0 A     ****
