@<TRIPOS>MOLECULE
AlkEthOH_c397
   25    24     1     0     0
SMALL
USER_CHARGES

@<TRIPOS>ATOM
      1 C1         -0.5932    2.1287   -0.6326 CT        1 <0>       -0.09248
      2 C2          1.3952    1.5891   -2.0435 CT        1 <0>       -0.09248
      3 C3         -2.0071   -0.3988    0.5819 CT        1 <0>       -0.08554
      4 C4          0.2088   -0.2509   -0.6921 CT        1 <0>       -0.09595
      5 C5         -0.2787   -2.2456    0.7493 CT        1 <0>        0.09692
      6 C6          0.6438    1.2314   -0.7618 CT        1 <0>       -0.06043
      7 C7         -0.5118   -0.7312    0.5903 CT        1 <0>        0.15911
      8 O1         -0.9065   -2.9631   -0.3079 OH        1 <0>       -0.59700
      9 O2          0.0877   -0.0904    1.7187 OH        1 <0>       -0.59442
     10 H1         -1.2891    1.9551   -1.4603 HC        1 <0>        0.03530
     11 H2         -1.1293    1.9212    0.2997 HC        1 <0>        0.03530
     12 H3         -0.3176    3.1888   -0.6363 HC        1 <0>        0.03530
     13 H4          0.7883    1.3831   -2.9315 HC        1 <0>        0.03530
     14 H5          1.6591    2.6524   -2.0558 HC        1 <0>        0.03530
     15 H6          2.3317    1.0308   -2.1268 HC        1 <0>        0.03530
     16 H7         -2.4983   -0.7463    1.4964 HC        1 <0>        0.04971
     17 H8         -2.5115   -0.8471   -0.2804 HC        1 <0>        0.04971
     18 H9         -2.1761    0.6797    0.4880 HC        1 <0>        0.04971
     19 H10        -0.4515   -0.4431   -1.5490 HC        1 <0>        0.05241
     20 H11         1.1027   -0.8728   -0.8412 HC        1 <0>        0.05241
     21 H12        -0.7111   -2.6050    1.6896 H1        1 <0>        0.02681
     22 H13         0.7902   -2.4833    0.7338 H1        1 <0>        0.02681
     23 H14         1.2927    1.4558    0.0930 HC        1 <0>        0.04347
     24 H15        -0.7245   -3.9033   -0.1520 HO        1 <0>        0.40141
     25 H16         1.0282   -0.3203    1.6940 HO        1 <0>        0.39802
@<TRIPOS>BOND
     1    1    6 1
     2    2    6 1
     3    3    7 1
     4    4    6 1
     5    4    7 1
     6    5    7 1
     7    5    8 1
     8    7    9 1
     9    1   10 1
    10    1   11 1
    11    1   12 1
    12    2   13 1
    13    2   14 1
    14    2   15 1
    15    3   16 1
    16    3   17 1
    17    3   18 1
    18    4   19 1
    19    4   20 1
    20    5   21 1
    21    5   22 1
    22    6   23 1
    23    8   24 1
    24    9   25 1
@<TRIPOS>SUBSTRUCTURE
     1 <0>         1 GROUP 0 A     ****
