@<TRIPOS>MOLECULE
AlkEthOH_r513
   24    24     1     0     0
SMALL
USER_CHARGES

@<TRIPOS>ATOM
      1 C1         -0.7616    1.3187   -0.8836 CT        1 <0>       -0.14069
      2 C2          1.0605   -0.2757   -0.2122 CT        1 <0>       -0.07536
      3 C3         -1.7617    0.2842   -0.3789 CT        1 <0>        0.13977
      4 C4          0.5855    1.1869   -0.1642 CT        1 <0>        0.15527
      5 C5         -0.0404   -1.2648    0.2170 CT        1 <0>        0.34164
      6 C6          1.6247    2.1221   -0.7843 CT        1 <0>       -0.12259
      7 C7          0.3964   -2.6952   -0.0981 CT        1 <0>       -0.11347
      8 O1         -1.2472   -1.0377   -0.5204 OS        1 <0>       -0.45184
      9 O2          0.4019    1.5840    1.1968 OH        1 <0>       -0.57523
     10 O3         -0.2580   -1.2227    1.6279 OH        1 <0>       -0.59873
     11 H1         -0.6132    1.1665   -1.9602 HC        1 <0>        0.05321
     12 H2         -1.1828    2.3202   -0.7377 HC        1 <0>        0.05321
     13 H3          1.3633   -0.5060   -1.2422 HC        1 <0>        0.06907
     14 H4          1.9357   -0.4009    0.4380 HC        1 <0>        0.06907
     15 H5         -2.0397    0.4648    0.6656 H1        1 <0>        0.05507
     16 H6         -2.6802    0.3442   -0.9718 H1        1 <0>        0.05507
     17 H7          2.5730    2.0151   -0.2617 HC        1 <0>        0.04330
     18 H8          1.2855    3.1528   -0.7035 HC        1 <0>        0.04330
     19 H9          1.7638    1.8718   -1.8340 HC        1 <0>        0.04330
     20 H10        -0.3823   -3.3913    0.2058 HC        1 <0>        0.05218
     21 H11         1.3133   -2.9252    0.4402 HC        1 <0>        0.05218
     22 H12         0.5722   -2.7974   -1.1668 HC        1 <0>        0.05218
     23 H13         0.0976    2.5031    1.1729 HO        1 <0>        0.39280
     24 H14        -0.9573   -1.8663    1.8146 HO        1 <0>        0.40729
@<TRIPOS>BOND
     1    1    3 1
     2    1    4 1
     3    2    4 1
     4    2    5 1
     5    3    8 1
     6    4    6 1
     7    4    9 1
     8    5    7 1
     9    5    8 1
    10    5   10 1
    11    1   11 1
    12    1   12 1
    13    2   13 1
    14    2   14 1
    15    3   15 1
    16    3   16 1
    17    6   17 1
    18    6   18 1
    19    6   19 1
    20    7   20 1
    21    7   21 1
    22    7   22 1
    23    9   23 1
    24   10   24 1
@<TRIPOS>SUBSTRUCTURE
     1 <0>         1 GROUP 0 A     ****
