@<TRIPOS>MOLECULE
AlkEthOH_r78
   25    25     1     0     0
SMALL
USER_CHARGES

@<TRIPOS>ATOM
      1 C1          2.0877   -1.2449   -0.4098 CT        1 <0>       -0.10367
      2 C2          0.9382   -1.4551   -1.4080 CT        1 <0>       -0.10367
      3 C3         -1.3628    0.8851    0.7273 CT        1 <0>       -0.15572
      4 C4          1.6512   -1.0572    1.0453 CT        1 <0>        0.13362
      5 C5          0.4924   -0.1764   -2.1277 CT        1 <0>        0.13362
      6 C6         -0.4945   -0.1062    1.5094 CT        1 <0>        0.33901
      7 C7         -1.3100    0.6221   -0.7809 CT        1 <0>        0.33901
      8 O1          0.8762    0.1253    1.1868 OS        1 <0>       -0.38278
      9 O2          0.0278    0.8253   -1.2319 OS        1 <0>       -0.38278
     10 O3         -0.7106    0.0454    2.9091 OH        1 <0>       -0.60646
     11 O4         -2.1957    1.5367   -1.4196 OH        1 <0>       -0.60646
     12 H1          2.7378   -2.1281   -0.4449 HC        1 <0>        0.04649
     13 H2          2.6965   -0.3891   -0.7247 HC        1 <0>        0.04649
     14 H3          1.2805   -2.1560   -2.1796 HC        1 <0>        0.04649
     15 H4          0.0915   -1.9344   -0.9056 HC        1 <0>        0.04649
     16 H5         -2.4005    0.8434    1.0806 HC        1 <0>        0.07375
     17 H6         -1.0166    1.9077    0.9302 HC        1 <0>        0.07375
     18 H7          1.1331   -1.9475    1.4206 H1        1 <0>        0.05027
     19 H8          2.5470   -0.9286    1.6625 H1        1 <0>        0.05027
     20 H9          1.3469    0.2466   -2.6674 H1        1 <0>        0.05027
     21 H10        -0.2766   -0.3996   -2.8771 H1        1 <0>        0.05027
     22 H11        -0.8052   -1.1335    1.2270 H2        1 <0>        0.02660
     23 H12        -1.6669   -0.3953   -0.9819 H2        1 <0>        0.02660
     24 H13        -1.6517   -0.1306    3.0653 HO        1 <0>        0.40427
     25 H14        -3.0794    1.3644   -1.0588 HO        1 <0>        0.40427
@<TRIPOS>BOND
     1    1    2 1
     2    1    4 1
     3    2    5 1
     4    3    6 1
     5    3    7 1
     6    4    8 1
     7    5    9 1
     8    6    8 1
     9    6   10 1
    10    7    9 1
    11    7   11 1
    12    1   12 1
    13    1   13 1
    14    2   14 1
    15    2   15 1
    16    3   16 1
    17    3   17 1
    18    4   18 1
    19    4   19 1
    20    5   20 1
    21    5   21 1
    22    6   22 1
    23    7   23 1
    24   10   24 1
    25   11   25 1
@<TRIPOS>SUBSTRUCTURE
     1 <0>         1 GROUP 0 A     ****
