@<TRIPOS>MOLECULE
AlkEthOH_r788
   29    29     1     0     0
SMALL
USER_CHARGES

@<TRIPOS>ATOM
      1 C1          0.9087    0.0342   -2.0227 CT        1 <0>       -0.09007
      2 C2          0.3807    1.1682   -1.1395 CT        1 <0>       -0.05593
      3 C3         -1.0485   -0.2501    0.5483 CT        1 <0>       -0.09864
      4 C4          1.2578   -1.2593   -1.3007 CT        1 <0>        0.12912
      5 C5          1.1909   -1.4042    1.0836 CT        1 <0>        0.13624
      6 C6          0.1206   -0.3964    1.5460 CT        1 <0>       -0.09250
      7 C7         -0.9686    0.9438   -0.4307 CT        1 <0>        0.15435
      8 C8         -0.4199   -0.8511    2.9079 CT        1 <0>       -0.09244
      9 C9         -1.3508    2.2397    0.3058 CT        1 <0>       -0.12600
     10 O1          1.9105   -0.9795   -0.0691 OS        1 <0>       -0.42058
     11 O2         -1.9814    0.7547   -1.4288 OH        1 <0>       -0.60258
     12 H1          0.2100   -0.1794   -2.8397 HC        1 <0>        0.05135
     13 H2          1.8256    0.4076   -2.4983 HC        1 <0>        0.05135
     14 H3          1.1495    1.4514   -0.4104 HC        1 <0>        0.05373
     15 H4          0.2731    2.0380   -1.8038 HC        1 <0>        0.05373
     16 H5         -1.2033   -1.1849   -0.0025 HC        1 <0>        0.04458
     17 H6         -1.9904   -0.1425    1.1063 HC        1 <0>        0.04458
     18 H7          0.3806   -1.9017   -1.1805 H1        1 <0>        0.03927
     19 H8          1.9607   -1.8282   -1.9202 H1        1 <0>        0.03927
     20 H9          1.9392   -1.5055    1.8788 H1        1 <0>        0.04487
     21 H10         0.7705   -2.4062    0.9307 H1        1 <0>        0.04487
     22 H11         0.5995    0.5786    1.6915 HC        1 <0>        0.06343
     23 H12        -0.9033   -1.8182    2.8011 HC        1 <0>        0.03564
     24 H13        -1.1405   -0.1244    3.2723 HC        1 <0>        0.03564
     25 H14         0.4014   -0.9327    3.6144 HC        1 <0>        0.03564
     26 H15        -2.3004    2.0970    0.8106 HC        1 <0>        0.04210
     27 H16        -1.4367    3.0474   -0.4133 HC        1 <0>        0.04210
     28 H17        -0.5818    2.4775    1.0332 HC        1 <0>        0.04210
     29 H18        -2.8081    0.6179   -0.9464 HO        1 <0>        0.39478
@<TRIPOS>BOND
     1    1    2 1
     2    1    4 1
     3    2    7 1
     4    3    6 1
     5    3    7 1
     6    4   10 1
     7    5    6 1
     8    5   10 1
     9    6    8 1
    10    7    9 1
    11    7   11 1
    12    1   12 1
    13    1   13 1
    14    2   14 1
    15    2   15 1
    16    3   16 1
    17    3   17 1
    18    4   18 1
    19    4   19 1
    20    5   20 1
    21    5   21 1
    22    6   22 1
    23    8   23 1
    24    8   24 1
    25    8   25 1
    26    9   26 1
    27    9   27 1
    28    9   28 1
    29   11   29 1
@<TRIPOS>SUBSTRUCTURE
     1 <0>         1 GROUP 0 A     ****
