@<TRIPOS>MOLECULE
AlkEthOH_r363
   35    35     1     0     0
SMALL
USER_CHARGES

@<TRIPOS>ATOM
      1 C1          0.2418    1.7168   -1.8170 CT        1 <0>       -0.07506
      2 C2         -1.2065    1.2769   -2.0321 CT        1 <0>       -0.07506
      3 C3          0.5204    2.4074   -0.4852 CT        1 <0>       -0.07040
      4 C4         -1.4586   -0.2272   -1.8874 CT        1 <0>       -0.07040
      5 C5          0.3078    1.6187    0.8071 CT        1 <0>       -0.08023
      6 C6         -1.7428   -0.6940   -0.4549 CT        1 <0>       -0.08023
      7 C7          0.7920   -0.9077    0.2212 CT        1 <0>       -0.08436
      8 C8          1.1465    0.3483    1.0507 CT        1 <0>        0.16514
      9 C9         -0.6314   -1.5186    0.2241 CT        1 <0>        0.16514
     10 C10         2.6433    0.6496    0.8573 CT        1 <0>       -0.12360
     11 C11        -1.1024   -1.9397    1.6215 CT        1 <0>       -0.12360
     12 O1          1.0244    0.0065    2.4418 OH        1 <0>       -0.60954
     13 O2         -0.5344   -2.7371   -0.5472 OH        1 <0>       -0.60954
     14 H1          0.9478    0.9051   -2.0040 HC        1 <0>        0.03756
     15 H2          0.4677    2.4618   -2.5936 HC        1 <0>        0.03756
     16 H3         -1.8984    1.8552   -1.4090 HC        1 <0>        0.03756
     17 H4         -1.4614    1.5318   -3.0701 HC        1 <0>        0.03756
     18 H5          1.5499    2.7857   -0.5058 HC        1 <0>        0.04196
     19 H6         -0.1104    3.3054   -0.4306 HC        1 <0>        0.04196
     20 H7         -2.3626   -0.4436   -2.4737 HC        1 <0>        0.04196
     21 H8         -0.6601   -0.8080   -2.3618 HC        1 <0>        0.04196
     22 H9          0.5345    2.3171    1.6280 HC        1 <0>        0.04642
     23 H10        -0.7531    1.4151    0.9597 HC        1 <0>        0.04642
     24 H11        -2.0757    0.1375    0.1700 HC        1 <0>        0.04642
     25 H12        -2.6227   -1.3519   -0.5249 HC        1 <0>        0.04642
     26 H13         1.1117   -0.7732   -0.8164 HC        1 <0>        0.05338
     27 H14         1.4581   -1.7112    0.5758 HC        1 <0>        0.05338
     28 H15         3.2157   -0.2551    1.0328 HC        1 <0>        0.04484
     29 H16         2.9473    1.4169    1.5614 HC        1 <0>        0.04484
     30 H17         2.8099    0.9970   -0.1569 HC        1 <0>        0.04484
     31 H18        -0.3234   -2.5217    2.1062 HC        1 <0>        0.04484
     32 H19        -2.0026   -2.5416    1.5342 HC        1 <0>        0.04484
     33 H20        -1.3148   -1.0543    2.2143 HC        1 <0>        0.04484
     34 H21         1.3660    0.7667    2.9306 HO        1 <0>        0.39609
     35 H22         0.1607   -3.2552   -0.1242 HO        1 <0>        0.39609
@<TRIPOS>BOND
     1    1    2 1
     2    1    3 1
     3    2    4 1
     4    3    5 1
     5    4    6 1
     6    5    8 1
     7    6    9 1
     8    7    8 1
     9    7    9 1
    10    8   10 1
    11    8   12 1
    12    9   11 1
    13    9   13 1
    14    1   14 1
    15    1   15 1
    16    2   16 1
    17    2   17 1
    18    3   18 1
    19    3   19 1
    20    4   20 1
    21    4   21 1
    22    5   22 1
    23    5   23 1
    24    6   24 1
    25    6   25 1
    26    7   26 1
    27    7   27 1
    28   10   28 1
    29   10   29 1
    30   10   30 1
    31   11   31 1
    32   11   32 1
    33   11   33 1
    34   12   34 1
    35   13   35 1
@<TRIPOS>SUBSTRUCTURE
     1 <0>         1 GROUP 0 A     ****
