@<TRIPOS>MOLECULE
AlkEthOH_c3
   14    13     1     0     0
SMALL
USER_CHARGES

@<TRIPOS>ATOM
      1 C1          0.9523    0.5385   -0.0326 CT        1 <0>        0.09391
      2 C2          0.9856    0.2573   -2.5348 CT        1 <0>        0.09391
      3 C3          1.1440    1.2331   -1.3744 CT        1 <0>        0.14117
      4 O1          1.1387    1.4891    1.0107 OH        1 <0>       -0.58050
      5 O2          1.1659    0.9422   -3.7700 OH        1 <0>       -0.58050
      6 O3          2.4671    1.7733   -1.4064 OH        1 <0>       -0.55854
      7 H1          1.6854   -0.2628    0.1078 H1        1 <0>        0.02389
      8 H2         -0.0587    0.1293    0.0585 H1        1 <0>        0.02389
      9 H3         -0.0085   -0.2005   -2.5434 H1        1 <0>        0.02389
     10 H4          1.7391   -0.5353   -2.4895 H1        1 <0>        0.02389
     11 H5          0.4552    2.0798   -1.4720 H1        1 <0>        0.10622
     12 H6          1.0096    1.0133    1.8463 HO        1 <0>        0.39880
     13 H7          1.0559    0.2819   -4.4722 HO        1 <0>        0.39880
     14 H8          3.0699    1.0224   -1.3025 HO        1 <0>        0.39117
@<TRIPOS>BOND
     1    1    3 1
     2    1    4 1
     3    2    3 1
     4    2    5 1
     5    3    6 1
     6    1    7 1
     7    1    8 1
     8    2    9 1
     9    2   10 1
    10    3   11 1
    11    4   12 1
    12    5   13 1
    13    6   14 1
@<TRIPOS>SUBSTRUCTURE
     1 <0>         1 GROUP 0 A     ****
