@<TRIPOS>MOLECULE
AlkEthOH_c856
   25    24     1     0     0
SMALL
USER_CHARGES

@<TRIPOS>ATOM
      1 C1         -0.1853    2.8790    1.5718 CT        1 <0>       -0.12416
      2 C2          2.4735   -1.7702   -1.2742 CT        1 <0>       -0.12416
      3 C3         -1.0809   -1.0485    1.6590 CT        1 <0>       -0.10986
      4 C4         -0.8261    1.8646    0.6361 CT        1 <0>        0.34849
      5 C5          1.0522   -1.2304   -1.3398 CT        1 <0>        0.34849
      6 C6         -0.5650   -0.5284    0.3099 CT        1 <0>        0.53997
      7 O1         -1.0728    2.4740   -0.6280 OH        1 <0>       -0.62165
      8 O2          0.3675   -1.8248   -2.4378 OH        1 <0>       -0.62165
      9 O3         -1.6481   -0.4914   -0.6226 OH        1 <0>       -0.64320
     10 O4          0.0567    0.7489    0.5268 OS        1 <0>       -0.43607
     11 O5          0.4199   -1.5048   -0.0878 OS        1 <0>       -0.43607
     12 H1          0.7834    3.2093    1.1836 HC        1 <0>        0.05255
     13 H2         -0.0505    2.4585    2.5732 HC        1 <0>        0.05255
     14 H3         -0.8166    3.7694    1.6705 HC        1 <0>        0.05255
     15 H4          2.4699   -2.8526   -1.1019 HC        1 <0>        0.05255
     16 H5          3.0062   -1.5880   -2.2127 HC        1 <0>        0.05255
     17 H6          3.0263   -1.3118   -0.4482 HC        1 <0>        0.05255
     18 H7         -0.2715   -1.0882    2.3963 HC        1 <0>        0.06013
     19 H8         -1.4897   -2.0600    1.5543 HC        1 <0>        0.06013
     20 H9         -1.8761   -0.4174    2.0673 HC        1 <0>        0.06013
     21 H10        -1.7891    1.5588    1.0557 H2        1 <0>        0.05757
     22 H11         1.0953   -0.1498   -1.5124 H2        1 <0>        0.05757
     23 H12        -1.6721    3.2269   -0.4918 HO        1 <0>        0.40883
     24 H13         0.8462   -1.6012   -3.2535 HO        1 <0>        0.40883
     25 H14        -2.0070   -1.3875   -0.7312 HO        1 <0>        0.45138
@<TRIPOS>BOND
     1    1    4 1
     2    2    5 1
     3    3    6 1
     4    4    7 1
     5    4   10 1
     6    5    8 1
     7    5   11 1
     8    6    9 1
     9    6   10 1
    10    6   11 1
    11    1   12 1
    12    1   13 1
    13    1   14 1
    14    2   15 1
    15    2   16 1
    16    2   17 1
    17    3   18 1
    18    3   19 1
    19    3   20 1
    20    4   21 1
    21    5   22 1
    22    7   23 1
    23    8   24 1
    24    9   25 1
@<TRIPOS>SUBSTRUCTURE
     1 <0>         1 GROUP 0 A     ****
