@<TRIPOS>MOLECULE
AlkEthOH_c237
   23    22     1     0     0
SMALL
USER_CHARGES

@<TRIPOS>ATOM
      1 C1         -0.4921    0.1122    0.9716 CT        1 <0>       -0.10140
      2 C2          1.6723    0.5912    2.1500 CT        1 <0>       -0.10140
      3 C3          2.1851   -3.3414    0.9289 CT        1 <0>        0.11456
      4 C4          0.7921   -1.7855    2.0067 CT        1 <0>        0.09910
      5 C5         -1.4644   -0.8581    3.4177 CT        1 <0>        0.32949
      6 C6          0.4298   -0.2995    2.1208 CT        1 <0>        0.16812
      7 O1         -1.9986   -0.9429    4.7310 OH        1 <0>       -0.59733
      8 O2          1.8456   -1.9690    1.0676 OS        1 <0>       -0.41535
      9 O3         -0.2710   -0.0901    3.3496 OS        1 <0>       -0.46697
     10 H1         -1.3862   -0.5210    0.9424 HC        1 <0>        0.04922
     11 H2         -0.8084    1.1564    1.0628 HC        1 <0>        0.04922
     12 H3          0.0077   -0.0148    0.0045 HC        1 <0>        0.04922
     13 H4          2.3454    0.3108    2.9678 HC        1 <0>        0.04922
     14 H5          1.3962    1.6368    2.3298 HC        1 <0>        0.04922
     15 H6          2.2270    0.5381    1.2076 HC        1 <0>        0.04922
     16 H7          2.9948   -3.4456    0.2025 H1        1 <0>        0.03533
     17 H8          1.3083   -3.9027    0.5963 H1        1 <0>        0.03533
     18 H9          2.5155   -3.7254    1.8970 H1        1 <0>        0.03533
     19 H10         1.1389   -2.1760    2.9697 H1        1 <0>        0.03637
     20 H11        -0.0689   -2.3748    1.6736 H1        1 <0>        0.03637
     21 H12        -1.3196   -1.8622    3.0023 H2        1 <0>        0.03856
     22 H13        -2.2067   -0.3465    2.7984 H2        1 <0>        0.03856
     23 H14        -2.1919   -0.0358    5.0222 HO        1 <0>        0.42001
@<TRIPOS>BOND
     1    1    6 1
     2    2    6 1
     3    3    8 1
     4    4    6 1
     5    4    8 1
     6    5    7 1
     7    5    9 1
     8    6    9 1
     9    1   10 1
    10    1   11 1
    11    1   12 1
    12    2   13 1
    13    2   14 1
    14    2   15 1
    15    3   16 1
    16    3   17 1
    17    3   18 1
    18    4   19 1
    19    4   20 1
    20    5   21 1
    21    5   22 1
    22    7   23 1
@<TRIPOS>SUBSTRUCTURE
     1 <0>         1 GROUP 0 A     ****
