@<TRIPOS>MOLECULE
AlkEthOH_c498
   26    25     1     0     0
SMALL
USER_CHARGES

@<TRIPOS>ATOM
      1 C1         -1.6276    1.8437   -2.3630 CT        1 <0>       -0.10588
      2 C2         -2.5625   -0.4913   -2.2033 CT        1 <0>       -0.10588
      3 C3          1.3625   -1.8566   -0.1241 CT        1 <0>       -0.12633
      4 C4         -0.3232    1.5194    0.8907 CT        1 <0>       -0.14586
      5 C5         -1.7940    0.6100   -1.4890 CT        1 <0>        0.14706
      6 C6          1.1894   -0.4579    0.4667 CT        1 <0>        0.13306
      7 C7         -0.2395    0.1095    0.2893 CT        1 <0>        0.35468
      8 O1          2.1327    0.4134   -0.1551 OH        1 <0>       -0.59004
      9 O2         -1.1181   -0.7681    0.9999 OH        1 <0>       -0.62348
     10 O3         -0.5124    0.1222   -1.1202 OS        1 <0>       -0.39933
     11 H1         -1.1055    1.6033   -3.2941 HC        1 <0>        0.04265
     12 H2         -2.6057    2.2702   -2.6102 HC        1 <0>        0.04265
     13 H3         -1.0673    2.6258   -1.8389 HC        1 <0>        0.04265
     14 H4         -2.0627   -0.7874   -3.1307 HC        1 <0>        0.04265
     15 H5         -3.5762   -0.1539   -2.4444 HC        1 <0>        0.04265
     16 H6         -2.6689   -1.3754   -1.5651 HC        1 <0>        0.04265
     17 H7          1.1293   -1.8459   -1.1946 HC        1 <0>        0.05244
     18 H8          2.3854   -2.2242   -0.0008 HC        1 <0>        0.05244
     19 H9          0.6711   -2.5716    0.3343 HC        1 <0>        0.05244
     20 H10        -1.3247    1.9475    0.7800 HC        1 <0>        0.05506
     21 H11         0.4093    2.1881    0.4255 HC        1 <0>        0.05506
     22 H12        -0.0901    1.5090    1.9612 HC        1 <0>        0.05506
     23 H13        -2.3185    0.8830   -0.5675 H1        1 <0>        0.04842
     24 H14         1.4302   -0.5049    1.5361 H1        1 <0>        0.02408
     25 H15         3.0107    0.0522    0.0405 HO        1 <0>        0.40361
     26 H16        -0.8436   -0.7885    1.9319 HO        1 <0>        0.40749
@<TRIPOS>BOND
     1    1    5 1
     2    2    5 1
     3    3    6 1
     4    4    7 1
     5    5   10 1
     6    6    7 1
     7    6    8 1
     8    7    9 1
     9    7   10 1
    10    1   11 1
    11    1   12 1
    12    1   13 1
    13    2   14 1
    14    2   15 1
    15    2   16 1
    16    3   17 1
    17    3   18 1
    18    3   19 1
    19    4   20 1
    20    4   21 1
    21    4   22 1
    22    5   23 1
    23    6   24 1
    24    8   25 1
    25    9   26 1
@<TRIPOS>SUBSTRUCTURE
     1 <0>         1 GROUP 0 A     ****
