@<TRIPOS>MOLECULE
AlkEthOH_c1262
   21    20     1     0     0
SMALL
USER_CHARGES

@<TRIPOS>ATOM
      1 C1         -2.0881    2.3357   -1.6454 CT        1 <0>       -0.09883
      2 C2          1.0706   -2.6224   -0.2987 CT        1 <0>       -0.12453
      3 C3         -1.3305    1.6299   -0.5412 CT        1 <0>        0.13925
      4 C4          1.4140   -1.1638   -0.5635 CT        1 <0>        0.34287
      5 C5          0.8528    1.0503    0.1846 CT        1 <0>        0.52775
      6 O1          1.1993   -0.8654   -1.9393 OH        1 <0>       -0.62638
      7 O2          0.7222    1.7263    1.4360 OH        1 <0>       -0.64131
      8 O3          0.0622    1.6983   -0.8181 OS        1 <0>       -0.46327
      9 O4          0.6107   -0.3584    0.3011 OS        1 <0>       -0.48795
     10 H1         -1.7961    3.3877   -1.7083 HC        1 <0>        0.04548
     11 H2         -1.8969    1.8574   -2.6116 HC        1 <0>        0.04548
     12 H3         -3.1676    2.2786   -1.4702 HC        1 <0>        0.04548
     13 H4          0.0125   -2.8159   -0.5077 HC        1 <0>        0.05713
     14 H5          1.6597   -3.2864   -0.9388 HC        1 <0>        0.05713
     15 H6          1.2467   -2.8797    0.7507 HC        1 <0>        0.05713
     16 H7         -1.6272    0.5783   -0.4837 H1        1 <0>        0.04099
     17 H8         -1.5221    2.1095    0.4233 H1        1 <0>        0.04099
     18 H9          2.4759   -1.0077   -0.3446 H2        1 <0>        0.08381
     19 H10         1.9061    1.1493   -0.1047 H3        1 <0>        0.11726
     20 H11         1.7725   -1.4436   -2.4701 HO        1 <0>        0.41422
     21 H12         1.0297    2.6400    1.3111 HO        1 <0>        0.42730
@<TRIPOS>BOND
     1    1    3 1
     2    2    4 1
     3    3    8 1
     4    4    6 1
     5    4    9 1
     6    5    7 1
     7    5    8 1
     8    5    9 1
     9    1   10 1
    10    1   11 1
    11    1   12 1
    12    2   13 1
    13    2   14 1
    14    2   15 1
    15    3   16 1
    16    3   17 1
    17    4   18 1
    18    5   19 1
    19    6   20 1
    20    7   21 1
@<TRIPOS>SUBSTRUCTURE
     1 <0>         1 GROUP 0 A     ****
