@<TRIPOS>MOLECULE
AlkEthOH_r1128
   23    23     1     0     0
SMALL
USER_CHARGES

@<TRIPOS>ATOM
      1 C1          0.1406    1.0740    0.1697 CT        1 <0>       -0.06683
      2 C2          0.2850    1.8233   -1.1583 CT        1 <0>       -0.10265
      3 C3         -0.9632    1.6139    1.0873 CT        1 <0>       -0.10265
      4 C4         -0.4005    1.1301   -2.3363 CT        1 <0>        0.13921
      5 C5         -2.3793    1.4865    0.5354 CT        1 <0>        0.13921
      6 C6         -2.6696    1.7131   -1.8416 CT        1 <0>        0.33220
      7 C7         -4.0700    1.1305   -1.9995 CT        1 <0>       -0.11571
      8 O1         -1.7196    0.6722   -2.0657 OS        1 <0>       -0.44871
      9 O2         -2.5511    2.3631   -0.5746 OS        1 <0>       -0.44871
     10 H1         -0.0002    0.0000    0.0002 HC        1 <0>        0.04021
     11 H2          1.0872    1.1755    0.7163 HC        1 <0>        0.04021
     12 H3         -0.0806    2.8514   -1.0566 HC        1 <0>        0.04835
     13 H4          1.3508    1.9097   -1.4044 HC        1 <0>        0.04835
     14 H5         -0.9109    1.0737    2.0403 HC        1 <0>        0.04835
     15 H6         -0.7530    2.6687    1.3034 HC        1 <0>        0.04835
     16 H7         -0.4060    1.7827   -3.2173 H1        1 <0>        0.04492
     17 H8          0.1829    0.2432   -2.6083 H1        1 <0>        0.04492
     18 H9         -2.6158    0.4434    0.2987 H1        1 <0>        0.04492
     19 H10        -3.0858    1.8115    1.3065 H1        1 <0>        0.04492
     20 H11        -2.5464    2.4850   -2.6108 H2        1 <0>        0.06643
     21 H12        -4.2365    0.3558   -1.2517 HC        1 <0>        0.05157
     22 H13        -4.1814    0.6953   -2.9921 HC        1 <0>        0.05157
     23 H14        -4.8153    1.9147   -1.8701 HC        1 <0>        0.05157
@<TRIPOS>BOND
     1    1    2 1
     2    1    3 1
     3    2    4 1
     4    3    5 1
     5    4    8 1
     6    5    9 1
     7    6    7 1
     8    6    8 1
     9    6    9 1
    10    1   10 1
    11    1   11 1
    12    2   12 1
    13    2   13 1
    14    3   14 1
    15    3   15 1
    16    4   16 1
    17    4   17 1
    18    5   18 1
    19    5   19 1
    20    6   20 1
    21    7   21 1
    22    7   22 1
    23    7   23 1
@<TRIPOS>SUBSTRUCTURE
     1 <0>         1 GROUP 0 A     ****
