@<TRIPOS>MOLECULE
AlkEthOH_c725
   23    22     1     0     0
SMALL
USER_CHARGES

@<TRIPOS>ATOM
      1 C1          0.1367   -1.0705   -0.1905 CT        1 <0>       -0.12627
      2 C2         -1.7232   -5.5230    0.4189 CT        1 <0>        0.11594
      3 C3         -1.1371   -1.5907    1.9476 CT        1 <0>       -0.10854
      4 C4         -0.0858   -2.2350    2.8424 CT        1 <0>        0.13837
      5 C5         -0.8138   -3.3762    0.1241 CT        1 <0>        0.13731
      6 C6         -0.9962   -1.8848    0.4420 CT        1 <0>        0.15678
      7 O1         -0.3380   -1.8483    4.1884 OH        1 <0>       -0.60195
      8 O2         -2.2231   -1.4512   -0.1642 OH        1 <0>       -0.58799
      9 O3         -1.8785   -4.1362    0.6845 OS        1 <0>       -0.40916
     10 H1          0.2242   -1.2907   -1.2610 HC        1 <0>        0.04471
     11 H2         -0.0659    0.0037   -0.1132 HC        1 <0>        0.04471
     12 H3          1.1037   -1.2777    0.2776 HC        1 <0>        0.04471
     13 H4         -2.5556   -6.0751    0.8621 H1        1 <0>        0.03272
     14 H5         -0.7762   -5.8715    0.8387 H1        1 <0>        0.03272
     15 H6         -1.7197   -5.6796   -0.6624 H1        1 <0>        0.03272
     16 H7         -2.1364   -1.8879    2.2951 HC        1 <0>        0.06756
     17 H8         -1.1263   -0.5032    2.1090 HC        1 <0>        0.06756
     18 H9          0.9220   -1.9033    2.5779 H1        1 <0>        0.02455
     19 H10        -0.1308   -3.3264    2.7893 H1        1 <0>        0.02455
     20 H11        -0.8249   -3.5458   -0.9583 H1        1 <0>        0.03492
     21 H12         0.1298   -3.7582    0.5269 H1        1 <0>        0.03492
     22 H13         0.3446   -2.2722    4.7325 HO        1 <0>        0.39962
     23 H14        -2.2980   -0.5076    0.0328 HO        1 <0>        0.39954
@<TRIPOS>BOND
     1    1    6 1
     2    2    9 1
     3    3    4 1
     4    3    6 1
     5    4    7 1
     6    5    6 1
     7    5    9 1
     8    6    8 1
     9    1   10 1
    10    1   11 1
    11    1   12 1
    12    2   13 1
    13    2   14 1
    14    2   15 1
    15    3   16 1
    16    3   17 1
    17    4   18 1
    18    4   19 1
    19    5   20 1
    20    5   21 1
    21    7   22 1
    22    8   23 1
@<TRIPOS>SUBSTRUCTURE
     1 <0>         1 GROUP 0 A     ****
