@<TRIPOS>MOLECULE
AlkEthOH_c70
   26    25     1     0     0
SMALL
USER_CHARGES

@<TRIPOS>ATOM
      1 C1          2.8436   -1.2687   -1.4107 CT        1 <0>       -0.12275
      2 C2          2.5280    2.5428    2.6357 CT        1 <0>       -0.13866
      3 C3          4.0514    1.2316   -0.0251 CT        1 <0>       -0.10328
      4 C4          2.4074    1.7537   -1.8363 CT        1 <0>       -0.10328
      5 C5          2.1047   -0.3548   -0.4361 CT        1 <0>        0.12337
      6 C6          1.9353    1.4162    1.8029 CT        1 <0>        0.32950
      7 C7          2.5832    1.1163   -0.4553 CT        1 <0>        0.16416
      8 O1          0.7150   -0.3967   -0.7708 OH        1 <0>       -0.58213
      9 O2          0.6908    1.0075    2.3624 OH        1 <0>       -0.60218
     10 O3          1.8020    1.8852    0.4639 OS        1 <0>       -0.39972
     11 H1          2.7736   -0.9094   -2.4407 HC        1 <0>        0.04253
     12 H2          2.4590   -2.2931   -1.3652 HC        1 <0>        0.04253
     13 H3          3.9055   -1.3261   -1.1461 HC        1 <0>        0.04253
     14 H4          1.8705    3.4178    2.6326 HC        1 <0>        0.05113
     15 H5          2.6493    2.2311    3.6793 HC        1 <0>        0.05113
     16 H6          3.5154    2.8296    2.2608 HC        1 <0>        0.05113
     17 H7          4.2172    0.7852    0.9616 HC        1 <0>        0.04792
     18 H8          4.3479    2.2830    0.0670 HC        1 <0>        0.04792
     19 H9          4.7189    0.7461   -0.7445 HC        1 <0>        0.04792
     20 H10         1.3693    1.6911   -2.1791 HC        1 <0>        0.04792
     21 H11         2.6447    2.8237   -1.8031 HC        1 <0>        0.04792
     22 H12         3.0541    1.2815   -2.5828 HC        1 <0>        0.04792
     23 H13         2.2038   -0.7562    0.5798 H1        1 <0>        0.03371
     24 H14         2.6171    0.5584    1.8275 H2        1 <0>        0.03020
     25 H15         0.4410   -1.3208   -0.6769 HO        1 <0>        0.40000
     26 H16         0.8515    0.6996    3.2701 HO        1 <0>        0.40256
@<TRIPOS>BOND
     1    1    5 1
     2    2    6 1
     3    3    7 1
     4    4    7 1
     5    5    7 1
     6    5    8 1
     7    6    9 1
     8    6   10 1
     9    7   10 1
    10    1   11 1
    11    1   12 1
    12    1   13 1
    13    2   14 1
    14    2   15 1
    15    2   16 1
    16    3   17 1
    17    3   18 1
    18    3   19 1
    19    4   20 1
    20    4   21 1
    21    4   22 1
    22    5   23 1
    23    6   24 1
    24    8   25 1
    25    9   26 1
@<TRIPOS>SUBSTRUCTURE
     1 <0>         1 GROUP 0 A     ****
