@<TRIPOS>MOLECULE
AlkEthOH_r600
   18    18     1     0     0
SMALL
USER_CHARGES

@<TRIPOS>ATOM
      1 C1          1.1362   -0.1701   -0.6201 CT        1 <0>        0.10994
      2 C2         -0.0781   -0.6020    1.2274 CT        1 <0>        0.51928
      3 C3         -0.2669    0.3683   -0.8319 CT        1 <0>        0.13000
      4 C4         -0.2700    1.7806   -1.4011 CT        1 <0>       -0.10021
      5 C5         -1.1176   -0.5655   -1.6975 CT        1 <0>       -0.10021
      6 O1          0.9619   -1.1483    0.4049 OS        1 <0>       -0.45844
      7 O2         -0.8177    0.3846    0.4924 OS        1 <0>       -0.46766
      8 O3          0.4523   -0.0475    2.4259 OH        1 <0>       -0.60510
      9 H1          1.5760   -0.6264   -1.5116 H1        1 <0>        0.06217
     10 H2          1.8222    0.5948   -0.2379 H1        1 <0>        0.06217
     11 H3         -0.7614   -1.4167    1.4914 H3        1 <0>        0.12672
     12 H4         -1.2951    2.1267   -1.5367 HC        1 <0>        0.04993
     13 H5          0.2382    1.7958   -2.3657 HC        1 <0>        0.04993
     14 H6          0.2445    2.4591   -0.7201 HC        1 <0>        0.04993
     15 H7         -2.1114   -0.1425   -1.8231 HC        1 <0>        0.04993
     16 H8         -1.1984   -1.5370   -1.2158 HC        1 <0>        0.04993
     17 H9         -0.6513   -0.6849   -2.6727 HC        1 <0>        0.04993
     18 H10        -0.3011    0.3003    2.9289 HO        1 <0>        0.42176
@<TRIPOS>BOND
     1    1    3 1
     2    1    6 1
     3    2    6 1
     4    2    7 1
     5    2    8 1
     6    3    4 1
     7    3    5 1
     8    3    7 1
     9    1    9 1
    10    1   10 1
    11    2   11 1
    12    4   12 1
    13    4   13 1
    14    4   14 1
    15    5   15 1
    16    5   16 1
    17    5   17 1
    18    8   18 1
@<TRIPOS>SUBSTRUCTURE
     1 <0>         1 GROUP 0 A     ****
