@<TRIPOS>MOLECULE
AlkEthOH_c623
   28    27     1     0     0
SMALL
USER_CHARGES

@<TRIPOS>ATOM
      1 C1          1.5175   -0.3114    1.4735 CT        1 <0>       -0.09168
      2 C2          1.3472   -1.5947   -2.1725 CT        1 <0>       -0.13054
      3 C3         -2.3731    1.7394    0.1293 CT        1 <0>       -0.12382
      4 C4         -2.2190   -0.6101    0.9725 CT        1 <0>       -0.12382
      5 C5         -0.2302    0.4684   -0.2289 CT        1 <0>       -0.05727
      6 C6          0.8052   -0.6238    0.1508 CT        1 <0>       -0.04308
      7 C7          1.8687   -0.8319   -0.9594 CT        1 <0>        0.13781
      8 C8         -1.4352    0.6781    0.7204 CT        1 <0>        0.15252
      9 O1          2.3777    0.4288   -1.3888 OH        1 <0>       -0.59758
     10 O2         -0.9903    1.1710    1.9842 OH        1 <0>       -0.59652
     11 H1          2.0637    0.6344    1.4185 HC        1 <0>        0.04240
     12 H2          2.2231   -1.1029    1.7466 HC        1 <0>        0.04240
     13 H3          0.7953   -0.2065    2.2908 HC        1 <0>        0.04240
     14 H4          0.5033   -1.0561   -2.6183 HC        1 <0>        0.04102
     15 H5          2.1219   -1.7097   -2.9363 HC        1 <0>        0.04102
     16 H6          0.9619   -2.5814   -1.8969 HC        1 <0>        0.04102
     17 H7         -1.8476    2.6799   -0.0661 HC        1 <0>        0.04117
     18 H8         -2.8183    1.3888   -0.8090 HC        1 <0>        0.04117
     19 H9         -3.2084    1.9444    0.8088 HC        1 <0>        0.04117
     20 H10        -1.5817   -1.3933    1.3954 HC        1 <0>        0.04117
     21 H11        -2.6549   -0.9878    0.0400 HC        1 <0>        0.04117
     22 H12        -3.0641   -0.4410    1.6475 HC        1 <0>        0.04117
     23 H13         0.3002    1.4247   -0.3306 HC        1 <0>        0.05821
     24 H14        -0.6337    0.2264   -1.2195 HC        1 <0>        0.05821
     25 H15         0.2798   -1.5793    0.2731 HC        1 <0>        0.04309
     26 H16         2.7099   -1.3966   -0.5389 H1        1 <0>        0.02796
     27 H17         3.0920    0.2385   -2.0163 HO        1 <0>        0.39519
     28 H18        -1.7850    1.2963    2.5244 HO        1 <0>        0.39404
@<TRIPOS>BOND
     1    1    6 1
     2    2    7 1
     3    3    8 1
     4    4    8 1
     5    5    6 1
     6    5    8 1
     7    6    7 1
     8    7    9 1
     9    8   10 1
    10    1   11 1
    11    1   12 1
    12    1   13 1
    13    2   14 1
    14    2   15 1
    15    2   16 1
    16    3   17 1
    17    3   18 1
    18    3   19 1
    19    4   20 1
    20    4   21 1
    21    4   22 1
    22    5   23 1
    23    5   24 1
    24    6   25 1
    25    7   26 1
    26    9   27 1
    27   10   28 1
@<TRIPOS>SUBSTRUCTURE
     1 <0>         1 GROUP 0 A     ****
