@<TRIPOS>MOLECULE
AlkEthOH_r652
   18    18     1     0     0
SMALL
USER_CHARGES

@<TRIPOS>ATOM
      1 C1          0.8593    1.6204    0.7087 CT        1 <0>        0.08936
      2 C2          1.5899    0.6053   -0.1512 CT        1 <0>        0.10070
      3 C3         -1.1304    0.3797    0.5222 CT        1 <0>        0.07371
      4 C4         -0.4217   -0.6362   -0.3787 CT        1 <0>        0.31204
      5 C5         -1.3762   -1.1523   -1.4510 CT        1 <0>       -0.10878
      6 O1         -0.1905    0.9704    1.4261 OS        1 <0>       -0.40412
      7 O2          0.6773   -0.0148   -1.0580 OS        1 <0>       -0.40415
      8 O3         -0.0078   -1.7725    0.3818 OH        1 <0>       -0.60562
      9 H1          1.5424    2.0702    1.4353 H1        1 <0>        0.05765
     10 H2          0.4287    2.4229    0.0987 H1        1 <0>        0.05765
     11 H3          2.3726    1.0944   -0.7386 H1        1 <0>        0.06817
     12 H4          2.0613   -0.1693    0.4641 H1        1 <0>        0.06817
     13 H5         -1.5979    1.1821   -0.0608 H1        1 <0>        0.06039
     14 H6         -1.9026   -0.1044    1.1292 H1        1 <0>        0.06039
     15 H7         -0.8631   -1.8730   -2.0853 HC        1 <0>        0.05462
     16 H8         -1.7257   -0.3229   -2.0634 HC        1 <0>        0.05462
     17 H9         -2.2317   -1.6350   -0.9816 HC        1 <0>        0.05462
     18 H10        -0.8134   -2.1553    0.7593 HO        1 <0>        0.41058
@<TRIPOS>BOND
     1    1    2 1
     2    1    6 1
     3    2    7 1
     4    3    4 1
     5    3    6 1
     6    4    5 1
     7    4    7 1
     8    4    8 1
     9    1    9 1
    10    1   10 1
    11    2   11 1
    12    2   12 1
    13    3   13 1
    14    3   14 1
    15    5   15 1
    16    5   16 1
    17    5   17 1
    18    8   18 1
@<TRIPOS>SUBSTRUCTURE
     1 <0>         1 GROUP 0 A     ****
