@<TRIPOS>MOLECULE
AlkEthOH_c1293
   18    17     1     0     0
SMALL
USER_CHARGES

@<TRIPOS>ATOM
      1 C1          0.2802    3.7872    1.4176 CT        1 <0>        0.12086
      2 C2          0.3246    1.7475    0.2512 CT        1 <0>        0.09401
      3 C3         -0.1463   -1.6782   -1.0416 CT        1 <0>        0.33769
      4 C4         -0.3125    0.3664    0.1725 CT        1 <0>        0.34641
      5 O1          0.0198   -2.4969    0.1070 OH        1 <0>       -0.63258
      6 O2         -1.6952    0.5501   -0.1104 OH        1 <0>       -0.63544
      7 O3         -0.3000    2.4965    1.2843 OS        1 <0>       -0.43604
      8 O4          0.3571   -0.3583   -0.8621 OS        1 <0>       -0.42003
      9 H1         -0.2237    4.3330    2.2189 H1        1 <0>        0.03669
     10 H2          0.1825    4.3307    0.4745 H1        1 <0>        0.03669
     11 H3          1.3388    3.6772    1.6645 H1        1 <0>        0.03669
     12 H4          0.2079    2.2856   -0.6953 H1        1 <0>        0.05209
     13 H5          1.3943    1.6729    0.4757 H1        1 <0>        0.05209
     14 H6          0.4327   -2.1352   -1.8491 H2        1 <0>        0.05146
     15 H7         -1.1966   -1.6710   -1.3529 H2        1 <0>        0.05146
     16 H8         -0.1935   -0.1463    1.1347 H2        1 <0>        0.06639
     17 H9         -0.3491   -3.3706   -0.1058 HO        1 <0>        0.41190
     18 H10        -2.0712    1.0751    0.6161 HO        1 <0>        0.42966
@<TRIPOS>BOND
     1    1    7 1
     2    2    4 1
     3    2    7 1
     4    3    5 1
     5    3    8 1
     6    4    6 1
     7    4    8 1
     8    1    9 1
     9    1   10 1
    10    1   11 1
    11    2   12 1
    12    2   13 1
    13    3   14 1
    14    3   15 1
    15    4   16 1
    16    5   17 1
    17    6   18 1
@<TRIPOS>SUBSTRUCTURE
     1 <0>         1 GROUP 0 A     ****
