@<TRIPOS>MOLECULE
AlkEthOH_r153
   21    21     1     0     0
SMALL
USER_CHARGES

@<TRIPOS>ATOM
      1 C1          1.3930    0.5705    0.2396 CT        1 <0>       -0.14758
      2 C2          1.5827   -0.9107    0.5643 CT        1 <0>        0.13747
      3 C3          0.0159   -1.7178   -1.0619 CT        1 <0>        0.09239
      4 C4         -1.3438   -1.0345   -1.1561 CT        1 <0>        0.10635
      5 C5         -1.1802    0.6288    0.5577 CT        1 <0>        0.13318
      6 C6          0.1816    1.2333    0.9017 CT        1 <0>        0.12968
      7 O1          0.4540   -1.7353    0.2935 OS        1 <0>       -0.42423
      8 O2         -1.2752    0.3569   -0.8421 OS        1 <0>       -0.40662
      9 O3          0.1720    2.6087    0.5032 OH        1 <0>       -0.59245
     10 H1          2.2991    1.1121    0.5423 HC        1 <0>        0.05832
     11 H2          1.3353    0.7202   -0.8456 HC        1 <0>        0.05832
     12 H3          2.4478   -1.3067    0.0194 H1        1 <0>        0.04682
     13 H4          1.8037   -1.0188    1.6317 H1        1 <0>        0.04682
     14 H5         -0.0889   -2.7606   -1.3794 H1        1 <0>        0.05121
     15 H6          0.7500   -1.2457   -1.7235 H1        1 <0>        0.05121
     16 H7         -1.7050   -1.1092   -2.1869 H1        1 <0>        0.05497
     17 H8         -2.0846   -1.5230   -0.5122 H1        1 <0>        0.05497
     18 H9         -1.3741   -0.2650    1.1611 H1        1 <0>        0.06232
     19 H10        -1.9752    1.3464    0.7897 H1        1 <0>        0.06232
     20 H11         0.3082    1.2242    1.9951 H1        1 <0>        0.02975
     21 H12         1.0070    2.9854    0.8157 HO        1 <0>        0.39478
@<TRIPOS>BOND
     1    1    2 1
     2    1    6 1
     3    2    7 1
     4    3    4 1
     5    3    7 1
     6    4    8 1
     7    5    6 1
     8    5    8 1
     9    6    9 1
    10    1   10 1
    11    1   11 1
    12    2   12 1
    13    2   13 1
    14    3   14 1
    15    3   15 1
    16    4   16 1
    17    4   17 1
    18    5   18 1
    19    5   19 1
    20    6   20 1
    21    9   21 1
@<TRIPOS>SUBSTRUCTURE
     1 <0>         1 GROUP 0 A     ****
