@<TRIPOS>MOLECULE
AlkEthOH_c1258
   26    25     1     0     0
SMALL
USER_CHARGES

@<TRIPOS>ATOM
      1 C1         -0.6991   -3.0846    6.6505 CT        1 <0>       -0.09723
      2 C2         -0.4645   -0.0646    0.9894 CT        1 <0>       -0.10887
      3 C3          1.6273    0.6910    2.1567 CT        1 <0>       -0.10887
      4 C4          1.2036   -1.7604    1.8118 CT        1 <0>       -0.10887
      5 C5         -0.9202   -1.9418    5.6827 CT        1 <0>        0.14244
      6 C6         -1.1439   -1.4317    3.3767 CT        1 <0>        0.51405
      7 C7          0.5609   -0.3988    2.0719 CT        1 <0>        0.16070
      8 O1         -2.4360   -0.8420    3.5356 OH        1 <0>       -0.62582
      9 O2         -0.9384   -2.4547    4.3569 OS        1 <0>       -0.47295
     10 O3         -0.1082   -0.4451    3.3327 OS        1 <0>       -0.42289
     11 H1         -1.5023   -3.8226    6.5729 HC        1 <0>        0.04268
     12 H2          0.2568   -3.5800    6.4510 HC        1 <0>        0.04268
     13 H3         -0.6571   -2.7152    7.6806 HC        1 <0>        0.04268
     14 H4         -1.2317   -0.8445    0.9253 HC        1 <0>        0.04644
     15 H5         -0.9578    0.8935    1.1830 HC        1 <0>        0.04644
     16 H6          0.0103   -0.0162    0.0027 HC        1 <0>        0.04644
     17 H7          2.3651    0.4554    2.9322 HC        1 <0>        0.04644
     18 H8          1.1816    1.6524    2.4367 HC        1 <0>        0.04644
     19 H9          2.1531    0.8168    1.2047 HC        1 <0>        0.04644
     20 H10         1.9391   -2.0003    2.5882 HC        1 <0>        0.04644
     21 H11         0.4566   -2.5604    1.7845 HC        1 <0>        0.04644
     22 H12         1.7476   -1.7592    0.8603 HC        1 <0>        0.04644
     23 H13        -0.1135   -1.2073    5.7653 H1        1 <0>        0.04286
     24 H14        -1.8760   -1.4484    5.8829 H1        1 <0>        0.04286
     25 H15        -1.1448   -1.9067    2.3880 H3        1 <0>        0.08026
     26 H16        -3.0967   -1.5462    3.4236 HO        1 <0>        0.41633
@<TRIPOS>BOND
     1    1    5 1
     2    2    7 1
     3    3    7 1
     4    4    7 1
     5    5    9 1
     6    6    8 1
     7    6    9 1
     8    6   10 1
     9    7   10 1
    10    1   11 1
    11    1   12 1
    12    1   13 1
    13    2   14 1
    14    2   15 1
    15    2   16 1
    16    3   17 1
    17    3   18 1
    18    3   19 1
    19    4   20 1
    20    4   21 1
    21    4   22 1
    22    5   23 1
    23    5   24 1
    24    6   25 1
    25    8   26 1
@<TRIPOS>SUBSTRUCTURE
     1 <0>         1 GROUP 0 A     ****
