@<TRIPOS>MOLECULE
AlkEthOH_r780
   26    26     1     0     0
SMALL
USER_CHARGES

@<TRIPOS>ATOM
      1 C1          0.3587   -2.0154   -0.7007 CT        1 <0>       -0.06452
      2 C2         -0.5865   -2.2834    0.4759 CT        1 <0>       -0.09770
      3 C3          0.0441   -0.7408   -1.4888 CT        1 <0>       -0.11166
      4 C4          1.1751    0.8258    0.2768 CT        1 <0>       -0.09996
      5 C5         -0.5445   -1.2379    1.5838 CT        1 <0>        0.13104
      6 C6          0.9723    0.4444   -1.1957 CT        1 <0>        0.15649
      7 C7         -0.0781    1.0732    1.1380 CT        1 <0>        0.15434
      8 C8         -0.8238    2.3420    0.7366 CT        1 <0>       -0.08927
      9 O1         -1.0218    0.0058    1.0865 OS        1 <0>       -0.42048
     10 O2          0.5045    1.5864   -1.9124 OH        1 <0>       -0.60336
     11 H1          1.4009   -2.0251   -0.3625 HC        1 <0>        0.03700
     12 H2          0.2581   -2.8663   -1.3874 HC        1 <0>        0.03700
     13 H3         -1.6106   -2.3549    0.0882 HC        1 <0>        0.04789
     14 H4         -0.3383   -3.2611    0.9057 HC        1 <0>        0.04789
     15 H5          0.1508   -0.9671   -2.5593 HC        1 <0>        0.05346
     16 H6         -1.0088   -0.4514   -1.3855 HC        1 <0>        0.05346
     17 H7          1.7716    0.0348    0.7458 HC        1 <0>        0.05180
     18 H8          1.7970    1.7297    0.3226 HC        1 <0>        0.05180
     19 H9         -1.2276   -1.5452    2.3832 H1        1 <0>        0.03763
     20 H10         0.4533   -1.1669    2.0302 H1        1 <0>        0.03763
     21 H11         1.9626    0.2110   -1.6081 H1        1 <0>        0.01985
     22 H12         0.2398    1.1990    2.1815 H1        1 <0>        0.02425
     23 H13        -1.1603    2.2635   -0.2965 HC        1 <0>        0.04924
     24 H14        -0.1653    3.2048    0.8310 HC        1 <0>        0.04924
     25 H15        -1.6896    2.4835    1.3825 HC        1 <0>        0.04924
     26 H16         0.5255    1.3482   -2.8516 HO        1 <0>        0.39770
@<TRIPOS>BOND
     1    1    2 1
     2    1    3 1
     3    2    5 1
     4    3    6 1
     5    4    6 1
     6    4    7 1
     7    5    9 1
     8    6   10 1
     9    7    8 1
    10    7    9 1
    11    1   11 1
    12    1   12 1
    13    2   13 1
    14    2   14 1
    15    3   15 1
    16    3   16 1
    17    4   17 1
    18    4   18 1
    19    5   19 1
    20    5   20 1
    21    6   21 1
    22    7   22 1
    23    8   23 1
    24    8   24 1
    25    8   25 1
    26   10   26 1
@<TRIPOS>SUBSTRUCTURE
     1 <0>         1 GROUP 0 A     ****
