@<TRIPOS>MOLECULE
AlkEthOH_r942
   32    32     1     0     0
SMALL
USER_CHARGES

@<TRIPOS>ATOM
      1 C1          1.3476   -1.7365    0.7230 CT        1 <0>       -0.07382
      2 C2          1.8347   -0.5651    1.5845 CT        1 <0>       -0.10992
      3 C3          1.4685   -1.5033   -0.7894 CT        1 <0>       -0.07869
      4 C4          0.7525   -0.0109    2.5168 CT        1 <0>        0.13104
      5 C5         -0.5176    1.2772    0.9460 CT        1 <0>        0.10497
      6 C6          0.7116   -0.2798   -1.3380 CT        1 <0>        0.14246
      7 C7         -1.2387    0.8432   -0.3470 CT        1 <0>        0.14710
      8 C8          0.7419   -0.3081   -2.8659 CT        1 <0>       -0.11371
      9 C9         -1.2672    1.9976   -1.3564 CT        1 <0>       -0.10205
     10 C10        -2.6882    0.4426   -0.0249 CT        1 <0>       -0.10205
     11 O1         -0.4966    0.1851    1.8623 OS        1 <0>       -0.40829
     12 O2         -0.6486   -0.3421   -0.9110 OS        1 <0>       -0.40691
     13 H1          1.9554   -2.6170    0.9696 HC        1 <0>        0.05379
     14 H2          0.3171   -2.0174    0.9691 HC        1 <0>        0.05379
     15 H3          2.6790   -0.8960    2.2022 HC        1 <0>        0.04018
     16 H4          2.2316    0.2389    0.9569 HC        1 <0>        0.04018
     17 H5          2.5291   -1.4219   -1.0592 HC        1 <0>        0.04308
     18 H6          1.0886   -2.4091   -1.2808 HC        1 <0>        0.04308
     19 H7          0.5748   -0.7336    3.3208 H1        1 <0>        0.04472
     20 H8          1.0811    0.9217    2.9900 H1        1 <0>        0.04472
     21 H9          0.4914    1.6457    0.7364 H1        1 <0>        0.03793
     22 H10        -1.0585    2.1011    1.4262 H1        1 <0>        0.03793
     23 H11         1.2067    0.6352   -1.0029 H1        1 <0>        0.03450
     24 H12         0.2540   -1.2115   -3.2269 HC        1 <0>        0.04069
     25 H13         1.7731   -0.2953   -3.2137 HC        1 <0>        0.04069
     26 H14         0.2205    0.5621   -3.2604 HC        1 <0>        0.04069
     27 H15        -1.7776    1.6765   -2.2603 HC        1 <0>        0.04565
     28 H16        -0.2498    2.2911   -1.6005 HC        1 <0>        0.04565
     29 H17        -1.7943    2.8440   -0.9246 HC        1 <0>        0.04565
     30 H18        -3.1877    0.1390   -0.9392 HC        1 <0>        0.04565
     31 H19        -3.2065    1.2913    0.4095 HC        1 <0>        0.04565
     32 H20        -2.6838   -0.3825    0.6800 HC        1 <0>        0.04565
@<TRIPOS>BOND
     1    1    2 1
     2    1    3 1
     3    2    4 1
     4    3    6 1
     5    4   11 1
     6    5    7 1
     7    5   11 1
     8    6    8 1
     9    6   12 1
    10    7    9 1
    11    7   10 1
    12    7   12 1
    13    1   13 1
    14    1   14 1
    15    2   15 1
    16    2   16 1
    17    3   17 1
    18    3   18 1
    19    4   19 1
    20    4   20 1
    21    5   21 1
    22    5   22 1
    23    6   23 1
    24    8   24 1
    25    8   25 1
    26    8   26 1
    27    9   27 1
    28    9   28 1
    29    9   29 1
    30   10   30 1
    31   10   31 1
    32   10   32 1
@<TRIPOS>SUBSTRUCTURE
     1 <0>         1 GROUP 0 A     ****
