@<TRIPOS>MOLECULE
AlkEthOH_r53
   29    29     1     0     0
SMALL
USER_CHARGES

@<TRIPOS>ATOM
      1 C1         -1.8207   -1.4905    0.0512 CT        1 <0>       -0.07519
      2 C2         -0.8031   -1.8221    1.1437 CT        1 <0>       -0.07519
      3 C3         -1.2154   -1.1604   -1.3197 CT        1 <0>       -0.07065
      4 C4         -0.5753   -0.7371    2.1965 CT        1 <0>       -0.07065
      5 C5         -0.8383    0.3102   -1.5349 CT        1 <0>       -0.08866
      6 C6         -0.3068    0.6903    1.7292 CT        1 <0>       -0.08866
      7 C7          1.4228    0.2484   -0.2021 CT        1 <0>       -0.10106
      8 C8          0.6561    0.6393   -1.4707 CT        1 <0>        0.15137
      9 C9          1.0583    0.9665    1.0992 CT        1 <0>        0.15137
     10 O1          1.2791   -0.0242   -2.5798 OH        1 <0>       -0.60768
     11 O2          1.1433    2.3796    0.8875 OH        1 <0>       -0.60768
     12 H1         -2.4282   -2.3948   -0.0940 HC        1 <0>        0.03790
     13 H2         -2.5256   -0.7159    0.3730 HC        1 <0>        0.03790
     14 H3         -1.1835   -2.6967    1.6905 HC        1 <0>        0.03790
     15 H4          0.1413   -2.1670    0.7169 HC        1 <0>        0.03790
     16 H5         -0.3809   -1.8317   -1.5511 HC        1 <0>        0.04157
     17 H6         -1.9936   -1.3944   -2.0596 HC        1 <0>        0.04157
     18 H7         -1.4731   -0.7045    2.8288 HC        1 <0>        0.04157
     19 H8          0.2385   -1.0589    2.8584 HC        1 <0>        0.04157
     20 H9         -1.1628    0.5619   -2.5555 HC        1 <0>        0.04721
     21 H10        -1.4205    0.9703   -0.8894 HC        1 <0>        0.04721
     22 H11        -1.1221    1.0628    1.1074 HC        1 <0>        0.04721
     23 H12        -0.3713    1.3296    2.6227 HC        1 <0>        0.04721
     24 H13         1.4368   -0.8349   -0.0761 HC        1 <0>        0.05302
     25 H14         2.4782    0.4893   -0.4027 HC        1 <0>        0.05302
     26 H15         0.7739    1.7141   -1.6523 H1        1 <0>        0.03680
     27 H16         1.8235    0.7189    1.8456 H1        1 <0>        0.03680
     28 H17         2.2201    0.1925   -2.5258 HO        1 <0>        0.39816
     29 H18         1.0537    2.7892    1.7599 HO        1 <0>        0.39816
@<TRIPOS>BOND
     1    1    2 1
     2    1    3 1
     3    2    4 1
     4    3    5 1
     5    4    6 1
     6    5    8 1
     7    6    9 1
     8    7    8 1
     9    7    9 1
    10    8   10 1
    11    9   11 1
    12    1   12 1
    13    1   13 1
    14    2   14 1
    15    2   15 1
    16    3   16 1
    17    3   17 1
    18    4   18 1
    19    4   19 1
    20    5   20 1
    21    5   21 1
    22    6   22 1
    23    6   23 1
    24    7   24 1
    25    7   25 1
    26    8   26 1
    27    9   27 1
    28   10   28 1
    29   11   29 1
@<TRIPOS>SUBSTRUCTURE
     1 <0>         1 GROUP 0 A     ****
