@<TRIPOS>MOLECULE
AlkEthOH_c1289
   15    14     1     0     0
SMALL
USER_CHARGES

@<TRIPOS>ATOM
      1 C1          0.9028   -0.2632   -1.7241 CT        1 <0>        0.13025
      2 C2         -1.6137   -0.2922    1.0592 CT        1 <0>        0.34271
      3 C3          0.5036    0.6236    0.4505 CT        1 <0>        0.52508
      4 O1         -1.3576   -1.6130    0.6064 OH        1 <0>       -0.61041
      5 O2          1.1001    1.8961    0.1888 OH        1 <0>       -0.61874
      6 O3          1.1094   -0.4178   -0.3260 OS        1 <0>       -0.42183
      7 O4         -0.9194    0.7037    0.3133 OS        1 <0>       -0.47600
      8 H1          1.3869   -1.0849   -2.2577 H1        1 <0>        0.04294
      9 H2          1.3188    0.6930   -2.0512 H1        1 <0>        0.04294
     10 H3         -0.1702   -0.2808   -1.9289 H1        1 <0>        0.04294
     11 H4         -1.3997   -0.2108    2.1309 H2        1 <0>        0.03608
     12 H5         -2.6830   -0.1069    0.9227 H2        1 <0>        0.03608
     13 H6          0.7328    0.3912    1.4975 H3        1 <0>        0.08664
     14 H7         -1.8711   -2.2142    1.1723 HO        1 <0>        0.41144
     15 H8          0.6466    2.5533    0.7433 HO        1 <0>        0.42988
@<TRIPOS>BOND
     1    1    6 1
     2    2    4 1
     3    2    7 1
     4    3    5 1
     5    3    6 1
     6    3    7 1
     7    1    8 1
     8    1    9 1
     9    1   10 1
    10    2   11 1
    11    2   12 1
    12    3   13 1
    13    4   14 1
    14    5   15 1
@<TRIPOS>SUBSTRUCTURE
     1 <0>         1 GROUP 0 A     ****
