@<TRIPOS>MOLECULE
AlkEthOH_c552
   22    21     1     0     0
SMALL
USER_CHARGES

@<TRIPOS>ATOM
      1 C1         -0.5561    4.0488    3.0279 CT        1 <0>       -0.10701
      2 C2          0.9805    2.4787    4.2630 CT        1 <0>       -0.10701
      3 C3         -0.4238    0.8108    0.6004 CT        1 <0>       -0.11943
      4 C4         -0.8331   -0.7088    2.5635 CT        1 <0>        0.12996
      5 C5          0.1847    2.7209    2.9895 CT        1 <0>        0.14202
      6 C6         -0.1831    0.5832    2.0850 CT        1 <0>        0.13170
      7 O1         -0.5999   -0.8539    3.9604 OH        1 <0>       -0.59847
      8 O2         -0.7516    1.6685    2.8163 OS        1 <0>       -0.42196
      9 H1         -1.2409    4.0970    3.8801 HC        1 <0>        0.04346
     10 H2          0.1541    4.8793    3.1022 HC        1 <0>        0.04346
     11 H3         -1.1297    4.2073    2.1080 HC        1 <0>        0.04346
     12 H4          0.3324    2.4895    5.1446 HC        1 <0>        0.04346
     13 H5          1.7494    3.2493    4.3843 HC        1 <0>        0.04346
     14 H6          1.5031    1.5165    4.2241 HC        1 <0>        0.04346
     15 H7         -1.4974    0.8254    0.3837 HC        1 <0>        0.04263
     16 H8          0.0100    1.7589    0.2680 HC        1 <0>        0.04263
     17 H9          0.0060   -0.0016    0.0041 HC        1 <0>        0.04263
     18 H10        -1.9163   -0.6903    2.4039 H1        1 <0>        0.03510
     19 H11        -0.4036   -1.5777    2.0553 H1        1 <0>        0.03510
     20 H12         0.8601    2.7041    2.1278 H1        1 <0>        0.03199
     21 H13         0.8907    0.5686    2.3018 H1        1 <0>        0.05673
     22 H14        -1.0260   -1.6832    4.2284 HO        1 <0>        0.40263
@<TRIPOS>BOND
     1    1    5 1
     2    2    5 1
     3    3    6 1
     4    4    6 1
     5    4    7 1
     6    5    8 1
     7    6    8 1
     8    1    9 1
     9    1   10 1
    10    1   11 1
    11    2   12 1
    12    2   13 1
    13    2   14 1
    14    3   15 1
    15    3   16 1
    16    3   17 1
    17    4   18 1
    18    4   19 1
    19    5   20 1
    20    6   21 1
    21    7   22 1
@<TRIPOS>SUBSTRUCTURE
     1 <0>         1 GROUP 0 A     ****
