@<TRIPOS>MOLECULE
AlkEthOH_c486
   19    18     1     0     0
SMALL
USER_CHARGES

@<TRIPOS>ATOM
      1 C1          0.9983   -0.3578   -0.2742 CT        1 <0>       -0.08930
      2 C2          1.1578    1.1798   -2.2511 CT        1 <0>       -0.08930
      3 C3          1.9991    1.9493   -0.0132 CT        1 <0>        0.13785
      4 C4          2.8566    2.6273    2.0814 CT        1 <0>        0.31884
      5 C5          1.8182    0.7470   -0.9439 CT        1 <0>       -0.06985
      6 O1          1.6317    3.1406    2.5850 OH        1 <0>       -0.62264
      7 O2          2.6754    1.5475    1.1709 OS        1 <0>       -0.45635
      8 H1         -0.0051    0.0026   -0.0230 HC        1 <0>        0.03667
      9 H2          1.4754   -0.7007    0.6503 HC        1 <0>        0.03667
     10 H3          0.8826   -1.2218   -0.9368 HC        1 <0>        0.03667
     11 H4          0.1652    1.6031   -2.0643 HC        1 <0>        0.03667
     12 H5          1.0346    0.3259   -2.9257 HC        1 <0>        0.03667
     13 H6          1.7569    1.9371   -2.7683 HC        1 <0>        0.03667
     14 H7          2.6000    2.7249   -0.4995 H1        1 <0>        0.03472
     15 H8          1.0323    2.3812    0.2672 H1        1 <0>        0.03472
     16 H9          3.4478    3.4328    1.6305 H2        1 <0>        0.05953
     17 H10         3.4204    2.2392    2.9345 H2        1 <0>        0.05953
     18 H11         2.8075    0.3294   -1.1709 HC        1 <0>        0.05287
     19 H12         1.8522    3.8671    3.1922 HO        1 <0>        0.40936
@<TRIPOS>BOND
     1    1    5 1
     2    2    5 1
     3    3    5 1
     4    3    7 1
     5    4    6 1
     6    4    7 1
     7    1    8 1
     8    1    9 1
     9    1   10 1
    10    2   11 1
    11    2   12 1
    12    2   13 1
    13    3   14 1
    14    3   15 1
    15    4   16 1
    16    4   17 1
    17    5   18 1
    18    6   19 1
@<TRIPOS>SUBSTRUCTURE
     1 <0>         1 GROUP 0 A     ****
