@<TRIPOS>MOLECULE
AlkEthOH_r895
   31    31     1     0     0
SMALL
USER_CHARGES

@<TRIPOS>ATOM
      1 C1          0.1851    1.0206    1.9550 CT        1 <0>       -0.07402
      2 C2         -1.0251    0.1575    2.3049 CT        1 <0>       -0.07393
      3 C3         -0.0491    2.1309    0.9285 CT        1 <0>       -0.06751
      4 C4         -1.6185   -0.7488    1.2270 CT        1 <0>       -0.06751
      5 C5         -0.1964    1.7440   -0.5480 CT        1 <0>       -0.09590
      6 C6         -0.6595   -1.7650    0.5943 CT        1 <0>       -0.09590
      7 C7          0.9498    0.8859   -1.1006 CT        1 <0>        0.14326
      8 C8         -0.0597   -1.3113   -0.7470 CT        1 <0>        0.14326
      9 C9          0.9257    0.8091   -2.6268 CT        1 <0>       -0.11642
     10 C10         0.5304   -2.5134   -1.4833 CT        1 <0>       -0.11642
     11 O1          1.0173   -0.4095   -0.5040 OS        1 <0>       -0.42225
     12 H1          0.4834    1.5205    2.8876 HC        1 <0>        0.04097
     13 H2          1.0465    0.4009    1.6950 HC        1 <0>        0.04097
     14 H3         -0.7423   -0.4759    3.1564 HC        1 <0>        0.04097
     15 H4         -1.8246    0.8110    2.6773 HC        1 <0>        0.04097
     16 H5         -0.9308    2.7131    1.2249 HC        1 <0>        0.03367
     17 H6          0.8008    2.8231    0.9994 HC        1 <0>        0.03367
     18 H7         -2.4127   -1.3250    1.7227 HC        1 <0>        0.03367
     19 H8         -2.1396   -0.1645    0.4644 HC        1 <0>        0.03367
     20 H9         -1.1609    1.2590   -0.7091 HC        1 <0>        0.04651
     21 H10        -0.2414    2.6793   -1.1219 HC        1 <0>        0.04651
     22 H11         0.1338   -2.0247    1.3055 HC        1 <0>        0.04651
     23 H12        -1.2398   -2.6797    0.4146 HC        1 <0>        0.04651
     24 H13         1.8921    1.3773   -0.8287 H1        1 <0>        0.05583
     25 H14        -0.8427   -0.8715   -1.3734 H1        1 <0>        0.05583
     26 H15         0.0072    0.3273   -2.9567 HC        1 <0>        0.04118
     27 H16         1.7786    0.2322   -2.9797 HC        1 <0>        0.04118
     28 H17         0.9741    1.8122   -3.0465 HC        1 <0>        0.04118
     29 H18         1.3128   -2.9679   -0.8784 HC        1 <0>        0.04118
     30 H19         0.9543   -2.1917   -2.4328 HC        1 <0>        0.04118
     31 H20        -0.2494   -3.2493   -1.6709 HC        1 <0>        0.04118
@<TRIPOS>BOND
     1    1    2 1
     2    1    3 1
     3    2    4 1
     4    3    5 1
     5    4    6 1
     6    5    7 1
     7    6    8 1
     8    7    9 1
     9    7   11 1
    10    8   10 1
    11    8   11 1
    12    1   12 1
    13    1   13 1
    14    2   14 1
    15    2   15 1
    16    3   16 1
    17    3   17 1
    18    4   18 1
    19    4   19 1
    20    5   20 1
    21    5   21 1
    22    6   22 1
    23    6   23 1
    24    7   24 1
    25    8   25 1
    26    9   26 1
    27    9   27 1
    28    9   28 1
    29   10   29 1
    30   10   30 1
    31   10   31 1
@<TRIPOS>SUBSTRUCTURE
     1 <0>         1 GROUP 0 A     ****
