@<TRIPOS>MOLECULE
AlkEthOH_c174
   22    21     1     0     0
SMALL
USER_CHARGES

@<TRIPOS>ATOM
      1 C1         -0.7980   -0.6513   -0.3742 CT        1 <0>       -0.08590
      2 C2         -1.0504    0.7940   -2.4065 CT        1 <0>       -0.08590
      3 C3          0.4975   -1.1771   -2.4496 CT        1 <0>       -0.08590
      4 C4         -2.0056   -1.5227   -2.4157 CT        1 <0>        0.13953
      5 C5         -3.1050   -2.3626   -4.3309 CT        1 <0>        0.32726
      6 C6         -0.8419   -0.6460   -1.9115 CT        1 <0>       -0.05510
      7 O1         -4.3999   -1.9006   -3.9745 OH        1 <0>       -0.62974
      8 O2         -2.0610   -1.5301   -3.8366 OS        1 <0>       -0.41581
      9 H1         -0.6501   -1.6659    0.0121 HC        1 <0>        0.03704
     10 H2         -1.7337   -0.2679    0.0485 HC        1 <0>        0.03704
     11 H3          0.0162   -0.0261    0.0081 HC        1 <0>        0.03704
     12 H4         -1.0866    0.8348   -3.5010 HC        1 <0>        0.03704
     13 H5         -1.9892    1.2123   -2.0264 HC        1 <0>        0.03704
     14 H6         -0.2362    1.4481   -2.0747 HC        1 <0>        0.03704
     15 H7          0.5146   -1.1923   -3.5449 HC        1 <0>        0.03704
     16 H8          0.6840   -2.2001   -2.1031 HC        1 <0>        0.03704
     17 H9          1.3331   -0.5543   -2.1108 HC        1 <0>        0.03704
     18 H10        -2.9646   -1.1479   -2.0407 H1        1 <0>        0.03803
     19 H11        -1.8872   -2.5577   -2.0754 H1        1 <0>        0.03803
     20 H12        -2.9717   -3.4018   -4.0084 H2        1 <0>        0.03556
     21 H13        -3.0433   -2.3433   -5.4228 H2        1 <0>        0.03556
     22 H14        -5.0422   -2.5252   -4.3516 HO        1 <0>        0.41102
@<TRIPOS>BOND
     1    1    6 1
     2    2    6 1
     3    3    6 1
     4    4    6 1
     5    4    8 1
     6    5    7 1
     7    5    8 1
     8    1    9 1
     9    1   10 1
    10    1   11 1
    11    2   12 1
    12    2   13 1
    13    2   14 1
    14    3   15 1
    15    3   16 1
    16    3   17 1
    17    4   18 1
    18    4   19 1
    19    5   20 1
    20    5   21 1
    21    7   22 1
@<TRIPOS>SUBSTRUCTURE
     1 <0>         1 GROUP 0 A     ****
