@<TRIPOS>MOLECULE
AlkEthOH_r374
   30    30     1     0     0
SMALL
USER_CHARGES

@<TRIPOS>ATOM
      1 C1          1.3964   -1.8781    0.3180 CT        1 <0>       -0.07247
      2 C2          1.5023   -0.9963    1.5636 CT        1 <0>       -0.07276
      3 C3          1.4770   -1.1201   -1.0071 CT        1 <0>       -0.07276
      4 C4          0.3200   -0.0658    1.8424 CT        1 <0>       -0.07055
      5 C5          0.1391   -0.9075   -1.7131 CT        1 <0>       -0.07055
      6 C6          0.1854    1.0981    0.8542 CT        1 <0>       -0.06450
      7 C7         -1.0436   -0.4192   -0.8751 CT        1 <0>       -0.06450
      8 C8         -0.9430    0.9720   -0.2019 CT        1 <0>       -0.04643
      9 C9         -2.3011    1.2506    0.4872 CT        1 <0>       -0.08816
     10 C10        -0.7326    2.0663   -1.2683 CT        1 <0>       -0.08816
     11 H1          2.2497   -2.5689    0.3522 HC        1 <0>        0.03686
     12 H2          0.5037   -2.5111    0.3670 HC        1 <0>        0.03686
     13 H3          1.6080   -1.6623    2.4300 HC        1 <0>        0.03570
     14 H4          2.4292   -0.4106    1.5214 HC        1 <0>        0.03570
     15 H5          2.0101   -0.1717   -0.8923 HC        1 <0>        0.03570
     16 H6          2.1015   -1.7086   -1.6933 HC        1 <0>        0.03570
     17 H7         -0.6052   -0.6428    1.9343 HC        1 <0>        0.03609
     18 H8          0.4933    0.3692    2.8361 HC        1 <0>        0.03609
     19 H9          0.2938   -0.2378   -2.5672 HC        1 <0>        0.03609
     20 H10        -0.1575   -1.8697   -2.1528 HC        1 <0>        0.03609
     21 H11        -0.0090    2.0067    1.4428 HC        1 <0>        0.03775
     22 H12         1.1489    1.2985    0.3737 HC        1 <0>        0.03775
     23 H13        -1.9122   -0.4044   -1.5498 HC        1 <0>        0.03775
     24 H14        -1.2960   -1.1815   -0.1289 HC        1 <0>        0.03775
     25 H15        -3.0893    1.1630   -0.2487 HC        1 <0>        0.03316
     26 H16        -2.2842    2.2513    0.8979 HC        1 <0>        0.03316
     27 H17        -2.4460    0.5256    1.2770 HC        1 <0>        0.03316
     28 H18        -1.5156    1.9895   -2.0136 HC        1 <0>        0.03316
     29 H19         0.2352    1.9244   -1.7348 HC        1 <0>        0.03316
     30 H20        -0.7726    3.0383   -0.7907 HC        1 <0>        0.03316
@<TRIPOS>BOND
     1    1    2 1
     2    1    3 1
     3    2    4 1
     4    3    5 1
     5    4    6 1
     6    5    7 1
     7    6    8 1
     8    7    8 1
     9    8    9 1
    10    8   10 1
    11    1   11 1
    12    1   12 1
    13    2   13 1
    14    2   14 1
    15    3   15 1
    16    3   16 1
    17    4   17 1
    18    4   18 1
    19    5   19 1
    20    5   20 1
    21    6   21 1
    22    6   22 1
    23    7   23 1
    24    7   24 1
    25    9   25 1
    26    9   26 1
    27    9   27 1
    28   10   28 1
    29   10   29 1
    30   10   30 1
@<TRIPOS>SUBSTRUCTURE
     1 <0>         1 GROUP 0 A     ****
