@<TRIPOS>MOLECULE
AlkEthOH_r1091
   26    26     1     0     0
SMALL
USER_CHARGES

@<TRIPOS>ATOM
      1 C1          2.0997   -0.1075    1.2281 CT        1 <0>       -0.12228
      2 C2          1.6507   -1.3556    0.4689 CT        1 <0>        0.13109
      3 C3          1.4178    1.1798    0.7671 CT        1 <0>        0.13362
      4 C4         -0.5224   -1.4447   -0.5425 CT        1 <0>        0.14156
      5 C5         -0.4881   -0.0459   -1.1882 CT        1 <0>       -0.12915
      6 C6         -0.7894    1.1205   -0.2088 CT        1 <0>        0.15659
      7 C7         -1.3935   -0.0181   -2.4233 CT        1 <0>       -0.08817
      8 C8         -2.2396    1.1501    0.2728 CT        1 <0>       -0.09084
      9 O1          0.2518   -1.5600    0.6487 OS        1 <0>       -0.40209
     10 O2          0.0131    1.0813    0.9772 OS        1 <0>       -0.40675
     11 H1          1.8624   -0.2543    2.2895 HC        1 <0>        0.05705
     12 H2          3.1860    0.0023    1.1400 HC        1 <0>        0.05705
     13 H3          1.9372   -1.3068   -0.5875 H1        1 <0>        0.03679
     14 H4          2.1589   -2.2270    0.8962 H1        1 <0>        0.03679
     15 H5          1.7768    2.0080    1.3879 H1        1 <0>        0.03584
     16 H6          1.6758    1.4254   -0.2686 H1        1 <0>        0.03584
     17 H7         -1.5521   -1.7053   -0.2740 H1        1 <0>        0.04529
     18 H8         -0.1849   -2.2059   -1.2568 H1        1 <0>        0.04529
     19 H9          0.5306    0.1094   -1.5618 HC        1 <0>        0.04599
     20 H10        -0.5897    2.0732   -0.7166 H1        1 <0>        0.02618
     21 H11        -2.4273   -0.1675   -2.1212 HC        1 <0>        0.03820
     22 H12        -1.1006   -0.8101   -3.1082 HC        1 <0>        0.03820
     23 H13        -1.2997    0.9431   -2.9228 HC        1 <0>        0.03820
     24 H14        -2.4769    0.2188    0.7836 HC        1 <0>        0.04657
     25 H15        -2.9075    1.2715   -0.5779 HC        1 <0>        0.04657
     26 H16        -2.3819    1.9815    0.9608 HC        1 <0>        0.04657
@<TRIPOS>BOND
     1    1    2 1
     2    1    3 1
     3    2    9 1
     4    3   10 1
     5    4    5 1
     6    4    9 1
     7    5    6 1
     8    5    7 1
     9    6    8 1
    10    6   10 1
    11    1   11 1
    12    1   12 1
    13    2   13 1
    14    2   14 1
    15    3   15 1
    16    3   16 1
    17    4   17 1
    18    4   18 1
    19    5   19 1
    20    6   20 1
    21    7   21 1
    22    7   22 1
    23    7   23 1
    24    8   24 1
    25    8   25 1
    26    8   26 1
@<TRIPOS>SUBSTRUCTURE
     1 <0>         1 GROUP 0 A     ****
