@<TRIPOS>MOLECULE
AlkEthOH_c1277
   22    21     1     0     0
SMALL
USER_CHARGES

@<TRIPOS>ATOM
      1 C1          3.3421   -3.8728   -5.3589 CT        1 <0>       -0.09594
      2 C2          0.3872    0.7577   -0.5495 CT        1 <0>       -0.13011
      3 C3          1.4087   -0.7635   -2.2846 CT        1 <0>       -0.07631
      4 C4          2.5124   -2.6093   -5.2757 CT        1 <0>        0.13083
      5 C5          1.5600   -1.0781   -3.7687 CT        1 <0>        0.13336
      6 C6          0.5699    0.4916   -2.0374 CT        1 <0>        0.14122
      7 O1         -0.7144    0.3479   -2.6377 OH        1 <0>       -0.60324
      8 O2          2.3347   -2.2614   -3.9093 OS        1 <0>       -0.42814
      9 H1          4.3263   -3.7239   -4.9059 HC        1 <0>        0.04411
     10 H2          2.8388   -4.6996   -4.8471 HC        1 <0>        0.04411
     11 H3          3.4760   -4.1784   -6.4019 HC        1 <0>        0.04411
     12 H4         -0.0935   -0.0891   -0.0503 HC        1 <0>        0.04395
     13 H5         -0.2196    1.6542   -0.3814 HC        1 <0>        0.04395
     14 H6          1.3564    0.9402   -0.0731 HC        1 <0>        0.04395
     15 H7          2.4032   -0.6500   -1.8355 HC        1 <0>        0.06106
     16 H8          0.9485   -1.6308   -1.7934 HC        1 <0>        0.06106
     17 H9          1.5296   -2.7650   -5.7305 H1        1 <0>        0.02299
     18 H10         3.0172   -1.7841   -5.7868 H1        1 <0>        0.02299
     19 H11         0.5865   -1.2453   -4.2398 H1        1 <0>        0.03367
     20 H12         2.0731   -0.2632   -4.2891 H1        1 <0>        0.03367
     21 H13         1.0526    1.3593   -2.5002 H1        1 <0>        0.02950
     22 H14        -1.1857    1.1817   -2.4851 HO        1 <0>        0.39921
@<TRIPOS>BOND
     1    1    4 1
     2    2    6 1
     3    3    5 1
     4    3    6 1
     5    4    8 1
     6    5    8 1
     7    6    7 1
     8    1    9 1
     9    1   10 1
    10    1   11 1
    11    2   12 1
    12    2   13 1
    13    2   14 1
    14    3   15 1
    15    3   16 1
    16    4   17 1
    17    4   18 1
    18    5   19 1
    19    5   20 1
    20    6   21 1
    21    7   22 1
@<TRIPOS>SUBSTRUCTURE
     1 <0>         1 GROUP 0 A     ****
