@<TRIPOS>MOLECULE
AlkEthOH_r624
   32    32     1     0     0
SMALL
USER_CHARGES

@<TRIPOS>ATOM
      1 C1          0.3341   -1.8799   -1.3483 CT        1 <0>       -0.05641
      2 C2         -0.4919   -0.9461   -2.2302 CT        1 <0>       -0.11639
      3 C3          0.5382   -1.5145    0.1317 CT        1 <0>       -0.11307
      4 C4         -1.8843   -0.6215   -1.6998 CT        1 <0>        0.13652
      5 C5         -1.1793    1.0928   -0.1913 CT        1 <0>        0.13413
      6 C6         -0.0859    0.9495    0.9026 CT        1 <0>       -0.05008
      7 C7          1.0518   -0.0853    0.4918 CT        1 <0>        0.17472
      8 C8          0.5039    2.3707    1.1016 CT        1 <0>       -0.08735
      9 C9         -0.7745    0.5509    2.2305 CT        1 <0>       -0.08735
     10 C10         2.1081   -0.2383    1.6115 CT        1 <0>       -0.12439
     11 O1         -1.8816   -0.1319   -0.3672 OS        1 <0>       -0.42249
     12 O2          1.7614    0.4535   -0.6328 OH        1 <0>       -0.60487
     13 H1         -0.1215   -2.8783   -1.3826 HC        1 <0>        0.03253
     14 H2          1.3217   -1.9936   -1.8148 HC        1 <0>        0.03253
     15 H3          0.0699   -0.0243   -2.4070 HC        1 <0>        0.05292
     16 H4         -0.6008   -1.4091   -3.2191 HC        1 <0>        0.05292
     17 H5         -0.3643   -1.7606    0.6996 HC        1 <0>        0.05362
     18 H6          1.2709   -2.2496    0.4962 HC        1 <0>        0.05362
     19 H7         -2.3849    0.1032   -2.3523 H1        1 <0>        0.04172
     20 H8         -2.4937   -1.5317   -1.7040 H1        1 <0>        0.04172
     21 H9         -1.9265    1.8317    0.1243 H1        1 <0>        0.04645
     22 H10        -0.7565    1.4772   -1.1264 H1        1 <0>        0.04645
     23 H11         1.2740    2.3216    1.8584 HC        1 <0>        0.03957
     24 H12        -0.2902    3.0326    1.4166 HC        1 <0>        0.03957
     25 H13         0.9213    2.7054    0.1625 HC        1 <0>        0.03957
     26 H14        -0.0184    0.4493    2.9974 HC        1 <0>        0.03957
     27 H15        -1.2889   -0.3897    2.0867 HC        1 <0>        0.03957
     28 H16        -1.4800    1.3246    2.5021 HC        1 <0>        0.03957
     29 H17         2.4789    0.7428    1.8776 HC        1 <0>        0.04203
     30 H18         2.9178   -0.8555    1.2452 HC        1 <0>        0.04203
     31 H19         1.6422   -0.7055    2.4691 HC        1 <0>        0.04203
     32 H20         2.4958   -0.1530   -0.8006 HO        1 <0>        0.39904
@<TRIPOS>BOND
     1    1    2 1
     2    1    3 1
     3    2    4 1
     4    3    7 1
     5    4   11 1
     6    5    6 1
     7    5   11 1
     8    6    7 1
     9    6    8 1
    10    6    9 1
    11    7   10 1
    12    7   12 1
    13    1   13 1
    14    1   14 1
    15    2   15 1
    16    2   16 1
    17    3   17 1
    18    3   18 1
    19    4   19 1
    20    4   20 1
    21    5   21 1
    22    5   22 1
    23    8   23 1
    24    8   24 1
    25    8   25 1
    26    9   26 1
    27    9   27 1
    28    9   28 1
    29   10   29 1
    30   10   30 1
    31   10   31 1
    32   12   32 1
@<TRIPOS>SUBSTRUCTURE
     1 <0>         1 GROUP 0 A     ****
