@<TRIPOS>MOLECULE
AlkEthOH_c1078
   32    31     1     0     0
SMALL
USER_CHARGES

@<TRIPOS>ATOM
      1 C1          0.3635   -1.4904    3.5413 CT        1 <0>       -0.09259
      2 C2          1.9618   -1.2472   -0.7212 CT        1 <0>       -0.09086
      3 C3         -1.8861    1.2722    0.1432 CT        1 <0>       -0.08681
      4 C4         -0.0736    2.5059   -1.0720 CT        1 <0>       -0.08681
      5 C5         -1.9175    1.4110   -2.3480 CT        1 <0>       -0.08681
      6 C6          1.0410   -0.8126    2.3595 CT        1 <0>       -0.07970
      7 C7          0.2068   -0.9537    1.0829 CT        1 <0>       -0.08147
      8 C8         -0.1774   -0.0321   -1.2627 CT        1 <0>       -0.06518
      9 C9          0.8743   -0.3215   -0.1593 CT        1 <0>       -0.06284
     10 C10        -1.0030    1.2789   -1.1126 CT        1 <0>       -0.05417
     11 H1          0.2001   -2.5543    3.3420 HC        1 <0>        0.03199
     12 H2         -0.6050   -1.0280    3.7570 HC        1 <0>        0.03199
     13 H3          0.9873   -1.4039    4.4363 HC        1 <0>        0.03199
     14 H4          1.5455   -2.2049   -1.0472 HC        1 <0>        0.03254
     15 H5          2.4728   -0.7876   -1.5739 HC        1 <0>        0.03254
     16 H6          2.7127   -1.4706    0.0448 HC        1 <0>        0.03254
     17 H7         -2.5616    0.4098    0.1465 HC        1 <0>        0.03385
     18 H8         -1.2882    1.2429    1.0598 HC        1 <0>        0.03385
     19 H9         -2.5062    2.1749    0.1930 HC        1 <0>        0.03385
     20 H10         0.5717    2.5398   -1.9575 HC        1 <0>        0.03385
     21 H11         0.5766    2.4797   -0.1905 HC        1 <0>        0.03385
     22 H12        -0.6342    3.4453   -1.0463 HC        1 <0>        0.03385
     23 H13        -1.3321    1.4206   -3.2744 HC        1 <0>        0.03385
     24 H14        -2.5013    2.3378   -2.3116 HC        1 <0>        0.03385
     25 H15        -2.6245    0.5758   -2.4111 HC        1 <0>        0.03385
     26 H16         1.1891    0.2482    2.5920 HC        1 <0>        0.03788
     27 H17         2.0308   -1.2599    2.2231 HC        1 <0>        0.03788
     28 H18        -0.7675   -0.4847    1.2562 HC        1 <0>        0.04229
     29 H19         0.0080   -2.0168    0.8950 HC        1 <0>        0.04229
     30 H20        -0.8667   -0.8849   -1.3320 HC        1 <0>        0.03906
     31 H21         0.3245    0.0106   -2.2394 HC        1 <0>        0.03906
     32 H22         1.3661    0.6088    0.1429 HC        1 <0>        0.05054
@<TRIPOS>BOND
     1    1    6 1
     2    2    9 1
     3    3   10 1
     4    4   10 1
     5    5   10 1
     6    6    7 1
     7    7    9 1
     8    8    9 1
     9    8   10 1
    10    1   11 1
    11    1   12 1
    12    1   13 1
    13    2   14 1
    14    2   15 1
    15    2   16 1
    16    3   17 1
    17    3   18 1
    18    3   19 1
    19    4   20 1
    20    4   21 1
    21    4   22 1
    22    5   23 1
    23    5   24 1
    24    5   25 1
    25    6   26 1
    26    6   27 1
    27    7   28 1
    28    7   29 1
    29    8   30 1
    30    8   31 1
    31    9   32 1
@<TRIPOS>SUBSTRUCTURE
     1 <0>         1 GROUP 0 A     ****
