@<TRIPOS>MOLECULE
AlkEthOH_r231
   30    30     1     0     0
SMALL
USER_CHARGES

@<TRIPOS>ATOM
      1 C1          1.6409    0.1298    1.7460 CT        1 <0>       -0.06907
      2 C2          2.3917    0.5424    0.4736 CT        1 <0>       -0.11165
      3 C3          0.9572   -1.2420    1.6770 CT        1 <0>       -0.11031
      4 C4         -1.1831   -0.4698    0.4446 CT        1 <0>       -0.05948
      5 C5          1.8421    1.8248   -0.1618 CT        1 <0>        0.12966
      6 C6         -0.0357    0.9673   -1.3613 CT        1 <0>        0.09585
      7 C7         -0.0209   -1.4795    0.5153 CT        1 <0>        0.15207
      8 C8         -1.3205    0.2409   -0.9256 CT        1 <0>        0.14536
      9 C9         -2.4960    1.2254   -0.8609 CT        1 <0>       -0.12057
     10 O1          0.4260    1.8035   -0.3076 OS        1 <0>       -0.41465
     11 O2         -0.5686   -2.7952    0.6713 OH        1 <0>       -0.59991
     12 O3         -1.6331   -0.7476   -1.9106 OH        1 <0>       -0.59088
     13 H1          2.3671    0.0870    2.5686 HC        1 <0>        0.04775
     14 H2          0.9168    0.8948    2.0465 HC        1 <0>        0.04775
     15 H3          3.4470    0.7156    0.7192 HC        1 <0>        0.04470
     16 H4          2.3905   -0.2708   -0.2586 HC        1 <0>        0.04470
     17 H5          1.7318   -2.0202    1.6365 HC        1 <0>        0.04326
     18 H6          0.4339   -1.4182    2.6266 HC        1 <0>        0.04326
     19 H7         -2.1241   -0.9985    0.6504 HC        1 <0>        0.07231
     20 H8         -1.0849    0.2862    1.2315 HC        1 <0>        0.07231
     21 H9          2.0782    2.6722    0.4914 H1        1 <0>        0.04720
     22 H10         2.3201    2.0214   -1.1285 H1        1 <0>        0.04720
     23 H11         0.7239    0.2486   -1.6883 H1        1 <0>        0.03898
     24 H12        -0.2314    1.5981   -2.2372 H1        1 <0>        0.03898
     25 H13         0.5425   -1.5107   -0.4267 H1        1 <0>        0.03657
     26 H14        -2.5997    1.7285   -1.8180 HC        1 <0>        0.04657
     27 H15        -2.3096    1.9607   -0.0833 HC        1 <0>        0.04657
     28 H16        -3.4100    0.6831   -0.6355 HC        1 <0>        0.04657
     29 H17         0.1831   -3.4036    0.6416 HO        1 <0>        0.39339
     30 H18        -1.7126   -0.2760   -2.7527 HO        1 <0>        0.39551
@<TRIPOS>BOND
     1    1    2 1
     2    1    3 1
     3    2    5 1
     4    3    7 1
     5    4    7 1
     6    4    8 1
     7    5   10 1
     8    6    8 1
     9    6   10 1
    10    7   11 1
    11    8    9 1
    12    8   12 1
    13    1   13 1
    14    1   14 1
    15    2   15 1
    16    2   16 1
    17    3   17 1
    18    3   18 1
    19    4   19 1
    20    4   20 1
    21    5   21 1
    22    5   22 1
    23    6   23 1
    24    6   24 1
    25    7   25 1
    26    9   26 1
    27    9   27 1
    28    9   28 1
    29   11   29 1
    30   12   30 1
@<TRIPOS>SUBSTRUCTURE
     1 <0>         1 GROUP 0 A     ****
