@<TRIPOS>MOLECULE
AlkEthOH_r502
   21    21     1     0     0
SMALL
USER_CHARGES

@<TRIPOS>ATOM
      1 C1         -0.8395    1.5562    0.2757 CT        1 <0>       -0.10718
      2 C2          0.0346    0.6766    1.1689 CT        1 <0>       -0.13395
      3 C3         -2.0296    0.7888   -0.2968 CT        1 <0>        0.12870
      4 C4         -0.7813   -1.1669   -0.8552 CT        1 <0>        0.32307
      5 C5          1.0360   -0.2259    0.4224 CT        1 <0>        0.34387
      6 C6          2.3235    0.5478    0.1178 CT        1 <0>       -0.11430
      7 O1         -1.6705   -0.1496   -1.3021 OS        1 <0>       -0.43456
      8 O2          0.5650   -0.7180   -0.8314 OS        1 <0>       -0.41630
      9 O3          1.3619   -1.3089    1.3006 OH        1 <0>       -0.62541
     10 H1         -1.2301    2.3802    0.8846 HC        1 <0>        0.05869
     11 H2         -0.2431    1.9966   -0.5306 HC        1 <0>        0.05869
     12 H3          0.5856    1.3125    1.8748 HC        1 <0>        0.05349
     13 H4         -0.6129    0.0619    1.8093 HC        1 <0>        0.05349
     14 H5         -2.5953    0.2792    0.4922 H1        1 <0>        0.04712
     15 H6         -2.7149    1.5026   -0.7666 H1        1 <0>        0.04712
     16 H7         -1.1036   -1.6081    0.0962 H2        1 <0>        0.07230
     17 H8         -0.8275   -1.9625   -1.6050 H2        1 <0>        0.07230
     18 H9          3.0208   -0.0991   -0.4083 HC        1 <0>        0.05428
     19 H10         2.7745    0.8838    1.0479 HC        1 <0>        0.05428
     20 H11         2.0918    1.4094   -0.5030 HC        1 <0>        0.05428
     21 H12         1.7508   -0.9075    2.0908 HO        1 <0>        0.41002
@<TRIPOS>BOND
     1    1    2 1
     2    1    3 1
     3    2    5 1
     4    3    7 1
     5    4    7 1
     6    4    8 1
     7    5    6 1
     8    5    8 1
     9    5    9 1
    10    1   10 1
    11    1   11 1
    12    2   12 1
    13    2   13 1
    14    3   14 1
    15    3   15 1
    16    4   16 1
    17    4   17 1
    18    6   18 1
    19    6   19 1
    20    6   20 1
    21    9   21 1
@<TRIPOS>SUBSTRUCTURE
     1 <0>         1 GROUP 0 A     ****
