@<TRIPOS>MOLECULE
AlkEthOH_r487
   25    25     1     0     0
SMALL
USER_CHARGES

@<TRIPOS>ATOM
      1 C1          0.4224    1.7701    1.2067 CT        1 <0>       -0.08892
      2 C2         -0.4263    0.5299    1.5204 CT        1 <0>       -0.08311
      3 C3          1.3749    1.6465    0.0213 CT        1 <0>        0.12408
      4 C4          1.8254   -0.5001   -0.9292 CT        1 <0>        0.09459
      5 C5          0.5102   -1.2320   -0.6698 CT        1 <0>        0.31288
      6 C6         -1.3074    0.0172    0.3629 CT        1 <0>        0.35934
      7 C7         -2.1465   -1.1852    0.8108 CT        1 <0>       -0.14737
      8 O1          2.1321    0.4417    0.0977 OS        1 <0>       -0.41614
      9 O2         -0.5646   -0.3086   -0.8130 OS        1 <0>       -0.49849
     10 O3          0.3918   -2.2630   -1.6475 OH        1 <0>       -0.60299
     11 O4         -2.2121    1.0835    0.0398 OH        1 <0>       -0.58674
     12 H1         -0.2254    2.6415    1.0556 HC        1 <0>        0.05415
     13 H2          1.0193    1.9822    2.1033 HC        1 <0>        0.05415
     14 H3          0.2376   -0.2618    1.8854 HC        1 <0>        0.05793
     15 H4         -1.0753    0.7937    2.3666 HC        1 <0>        0.05793
     16 H5          0.8407    1.7454   -0.9306 H1        1 <0>        0.05270
     17 H6          2.0877    2.4780    0.0587 H1        1 <0>        0.05270
     18 H7          2.6437   -1.2288   -0.9524 H1        1 <0>        0.06109
     19 H8          1.8272   -0.0046   -1.9083 H1        1 <0>        0.06109
     20 H9          0.5353   -1.7059    0.3160 H2        1 <0>        0.08445
     21 H10        -2.7587   -1.5300   -0.0183 HC        1 <0>        0.05372
     22 H11        -2.7890   -0.8922    1.6368 HC        1 <0>        0.05372
     23 H12        -1.4882   -1.9880    1.1321 HC        1 <0>        0.05372
     24 H13         0.3954   -1.8245   -2.5123 HO        1 <0>        0.41747
     25 H14        -2.7611    0.7561   -0.6857 HO        1 <0>        0.41805
@<TRIPOS>BOND
     1    1    2 1
     2    1    3 1
     3    2    6 1
     4    3    8 1
     5    4    5 1
     6    4    8 1
     7    5    9 1
     8    5   10 1
     9    6    7 1
    10    6    9 1
    11    6   11 1
    12    1   12 1
    13    1   13 1
    14    2   14 1
    15    2   15 1
    16    3   16 1
    17    3   17 1
    18    4   18 1
    19    4   19 1
    20    5   20 1
    21    7   21 1
    22    7   22 1
    23    7   23 1
    24   10   24 1
    25   11   25 1
@<TRIPOS>SUBSTRUCTURE
     1 <0>         1 GROUP 0 A     ****
