@<TRIPOS>MOLECULE
AlkEthOH_r81
   22    22     1     0     0
SMALL
USER_CHARGES

@<TRIPOS>ATOM
      1 C1          1.0596    1.5576   -0.9701 CT        1 <0>       -0.06720
      2 C2          1.6905    0.2867   -1.5512 CT        1 <0>       -0.09888
      3 C3          0.7761    1.4959    0.5336 CT        1 <0>       -0.13798
      4 C4          0.8213   -0.9625   -1.4597 CT        1 <0>        0.14236
      5 C5         -0.6873    1.1860    0.8753 CT        1 <0>        0.35854
      6 C6         -0.6772   -1.1827    0.3851 CT        1 <0>        0.53159
      7 O1          0.6593   -1.3384   -0.0956 OS        1 <0>       -0.44620
      8 O2         -1.2546    0.1011    0.1449 OS        1 <0>       -0.48321
      9 O3         -0.8626    1.0603    2.2849 OH        1 <0>       -0.63253
     10 O4         -1.5252   -2.2041   -0.1472 OH        1 <0>       -0.61932
     11 H1          1.7703    2.3757   -1.1450 HC        1 <0>        0.04251
     12 H2          0.1526    1.8175   -1.5286 HC        1 <0>        0.04251
     13 H3          1.9297    0.4706   -2.6054 HC        1 <0>        0.04958
     14 H4          2.6403    0.1028   -1.0335 HC        1 <0>        0.04958
     15 H5          1.4511    0.7898    1.0321 HC        1 <0>        0.06201
     16 H6          1.0169    2.4690    0.9829 HC        1 <0>        0.06201
     17 H7         -0.1354   -0.8206   -1.9761 H1        1 <0>        0.05352
     18 H8          1.3389   -1.7890   -1.9584 H1        1 <0>        0.05352
     19 H9         -1.2823    2.0735    0.5671 H2        1 <0>        0.06616
     20 H10        -0.6379   -1.3517    1.4667 H3        1 <0>        0.11887
     21 H11        -0.5990    1.9092    2.6721 HO        1 <0>        0.41808
     22 H12        -2.4078   -2.0402    0.2159 HO        1 <0>        0.43448
@<TRIPOS>BOND
     1    1    2 1
     2    1    3 1
     3    2    4 1
     4    3    5 1
     5    4    7 1
     6    5    8 1
     7    5    9 1
     8    6    7 1
     9    6    8 1
    10    6   10 1
    11    1   11 1
    12    1   12 1
    13    2   13 1
    14    2   14 1
    15    3   15 1
    16    3   16 1
    17    4   17 1
    18    4   18 1
    19    5   19 1
    20    6   20 1
    21    9   21 1
    22   10   22 1
@<TRIPOS>SUBSTRUCTURE
     1 <0>         1 GROUP 0 A     ****
