@<TRIPOS>MOLECULE
AlkEthOH_r1026
   26    26     1     0     0
SMALL
USER_CHARGES

@<TRIPOS>ATOM
      1 C1          0.1778    1.7260    0.2203 CT        1 <0>       -0.10387
      2 C2         -1.0143   -1.2155    0.2498 CT        1 <0>       -0.14690
      3 C3         -0.7255    1.4200    1.4048 CT        1 <0>        0.13241
      4 C4         -0.8669   -0.9366    1.7453 CT        1 <0>        0.13693
      5 C5          0.0105    0.7846   -0.9924 CT        1 <0>       -0.04408
      6 C6          0.1364   -0.7372   -0.6650 CT        1 <0>        0.16540
      7 C7          1.0140    1.2458   -2.0658 CT        1 <0>       -0.09173
      8 C8          0.1019   -1.5844   -1.9509 CT        1 <0>       -0.12339
      9 O1         -0.2270    0.2804    2.0860 OS        1 <0>       -0.40993
     10 O2          1.3929   -0.9832   -0.0320 OH        1 <0>       -0.58219
     11 H1         -0.0301    2.7530   -0.1060 HC        1 <0>        0.05924
     12 H2          1.2240    1.7013    0.5520 HC        1 <0>        0.05924
     13 H3         -1.1467   -2.3019    0.1555 HC        1 <0>        0.05083
     14 H4         -1.9579   -0.7838   -0.1090 HC        1 <0>        0.05083
     15 H5         -0.6659    2.2557    2.1106 H1        1 <0>        0.04137
     16 H6         -1.7788    1.3126    1.1214 H1        1 <0>        0.04137
     17 H7         -1.8503   -0.9681    2.2291 H1        1 <0>        0.04105
     18 H8         -0.2739   -1.7371    2.2019 H1        1 <0>        0.04105
     19 H9         -0.9870    0.9547   -1.4075 HC        1 <0>        0.04066
     20 H10         2.0234    1.0959   -1.6983 HC        1 <0>        0.03920
     21 H11         0.8531    2.2976   -2.2760 HC        1 <0>        0.03920
     22 H12         0.8627    0.6642   -2.9687 HC        1 <0>        0.03920
     23 H13         0.9024   -1.2653   -2.6091 HC        1 <0>        0.04182
     24 H14        -0.8545   -1.4460   -2.4429 HC        1 <0>        0.04182
     25 H15         0.2339   -2.6293   -1.6924 HC        1 <0>        0.04182
     26 H16         1.4427   -1.9397    0.1129 HO        1 <0>        0.39865
@<TRIPOS>BOND
     1    1    3 1
     2    1    5 1
     3    2    4 1
     4    2    6 1
     5    3    9 1
     6    4    9 1
     7    5    6 1
     8    5    7 1
     9    6    8 1
    10    6   10 1
    11    1   11 1
    12    1   12 1
    13    2   13 1
    14    2   14 1
    15    3   15 1
    16    3   16 1
    17    4   17 1
    18    4   18 1
    19    5   19 1
    20    7   20 1
    21    7   21 1
    22    7   22 1
    23    8   23 1
    24    8   24 1
    25    8   25 1
    26   10   26 1
@<TRIPOS>SUBSTRUCTURE
     1 <0>         1 GROUP 0 A     ****
