@<TRIPOS>MOLECULE
AlkEthOH_r861
   21    21     1     0     0
SMALL
USER_CHARGES

@<TRIPOS>ATOM
      1 C1          0.4744    0.8669   -0.4726 CT        1 <0>       -0.08154
      2 C2         -0.3797    2.1233   -0.3049 CT        1 <0>       -0.07882
      3 C3          0.6183    0.6407   -1.9773 CT        1 <0>       -0.07882
      4 C4         -0.9816    2.3890   -1.6856 CT        1 <0>       -0.06805
      5 C5          0.1415    1.9401   -2.6278 CT        1 <0>       -0.06805
      6 C6         -1.4015    3.8391   -1.8694 CT        1 <0>       -0.08446
      7 C7         -0.3015    1.7422   -4.0692 CT        1 <0>       -0.08446
      8 H1          1.4520    1.0040    0.0022 HC        1 <0>        0.03948
      9 H2          0.0000   -0.0001   -0.0000 HC        1 <0>        0.03948
     10 H3         -1.1520    1.9912    0.4597 HC        1 <0>        0.04134
     11 H4          0.2578    2.9580    0.0119 HC        1 <0>        0.04134
     12 H5          1.6490    0.3980   -2.2555 HC        1 <0>        0.04134
     13 H6         -0.0124   -0.2040   -2.2811 HC        1 <0>        0.04134
     14 H7         -1.8615    1.7454   -1.8202 HC        1 <0>        0.04896
     15 H8          0.9614    2.6708   -2.6062 HC        1 <0>        0.04896
     16 H9         -0.5419    4.4983   -1.7400 HC        1 <0>        0.03366
     17 H10        -2.1626    4.1056   -1.1347 HC        1 <0>        0.03366
     18 H11        -1.8110    3.9875   -2.8697 HC        1 <0>        0.03366
     19 H12        -1.1170    1.0189   -4.1155 HC        1 <0>        0.03366
     20 H13         0.5305    1.3728   -4.6704 HC        1 <0>        0.03366
     21 H14        -0.6463    2.6882   -4.4893 HC        1 <0>        0.03366
@<TRIPOS>BOND
     1    1    2 1
     2    1    3 1
     3    2    4 1
     4    3    5 1
     5    4    5 1
     6    4    6 1
     7    5    7 1
     8    1    8 1
     9    1    9 1
    10    2   10 1
    11    2   11 1
    12    3   12 1
    13    3   13 1
    14    4   14 1
    15    5   15 1
    16    6   16 1
    17    6   17 1
    18    6   18 1
    19    7   19 1
    20    7   20 1
    21    7   21 1
@<TRIPOS>SUBSTRUCTURE
     1 <0>         1 GROUP 0 A     ****
