@<TRIPOS>MOLECULE
AlkEthOH_r306
   18    18     1     0     0
SMALL
USER_CHARGES

@<TRIPOS>ATOM
      1 C1         -0.4923    1.4487   -0.7662 CT        1 <0>       -0.09508
      2 C2         -0.6511    0.8831    0.6583 CT        1 <0>       -0.08858
      3 C3         -0.2437    0.0091   -1.2560 CT        1 <0>       -0.08858
      4 C4          0.1563   -0.3674    0.2010 CT        1 <0>       -0.07516
      5 C5         -0.4261   -1.6923    0.6818 CT        1 <0>       -0.07692
      6 C6          1.6569   -0.2812    0.4810 CT        1 <0>       -0.07692
      7 H1         -1.3753    1.9429   -1.1798 HC        1 <0>        0.04736
      8 H2          0.3712    2.1125   -0.8854 HC        1 <0>        0.04736
      9 H3         -0.2035    1.4859    1.4536 HC        1 <0>        0.04931
     10 H4         -1.6952    0.6784    0.9244 HC        1 <0>        0.04931
     11 H5         -1.1534   -0.4836   -1.6201 HC        1 <0>        0.04931
     12 H6          0.5351   -0.0984   -2.0167 HC        1 <0>        0.04931
     13 H7          0.1879   -2.5189    0.3257 HC        1 <0>        0.03488
     14 H8         -1.4394   -1.8128    0.3001 HC        1 <0>        0.03488
     15 H9         -0.4522   -1.7131    1.7709 HC        1 <0>        0.03488
     16 H10         2.1481   -1.1882    0.1343 HC        1 <0>        0.03488
     17 H11         1.8253   -0.1693    1.5503 HC        1 <0>        0.03488
     18 H12         2.0791    0.5761   -0.0396 HC        1 <0>        0.03488
@<TRIPOS>BOND
     1    1    2 1
     2    1    3 1
     3    2    4 1
     4    3    4 1
     5    4    5 1
     6    4    6 1
     7    1    7 1
     8    1    8 1
     9    2    9 1
    10    2   10 1
    11    3   11 1
    12    3   12 1
    13    5   13 1
    14    5   14 1
    15    5   15 1
    16    6   16 1
    17    6   17 1
    18    6   18 1
@<TRIPOS>SUBSTRUCTURE
     1 <0>         1 GROUP 0 A     ****
