@<TRIPOS>MOLECULE
AlkEthOH_c788
   16    15     1     0     0
SMALL
USER_CHARGES

@<TRIPOS>ATOM
      1 C1         -0.6062    0.9264    0.6648 CT        1 <0>       -0.13194
      2 C2         -0.9866   -2.1705    4.3972 CT        1 <0>        0.11772
      3 C3         -0.8331   -0.7088    2.5635 CT        1 <0>        0.13034
      4 C4         -0.1831    0.5832    2.0850 CT        1 <0>        0.13647
      5 O1         -0.5895    1.6384    2.9552 OH        1 <0>       -0.59041
      6 O2         -0.4246   -0.9632    3.9033 OS        1 <0>       -0.41415
      7 H1         -1.6967    1.0050    0.5978 HC        1 <0>        0.04375
      8 H2         -0.1694    1.8751    0.3381 HC        1 <0>        0.04375
      9 H3         -0.3043    0.1399   -0.0355 HC        1 <0>        0.04375
     10 H4         -0.6534   -2.3347    5.4249 H1        1 <0>        0.03281
     11 H5         -0.6744   -3.0047    3.7639 H1        1 <0>        0.03281
     12 H6         -2.0760   -2.0891    4.3784 H1        1 <0>        0.03281
     13 H7         -1.9253   -0.6300    2.5545 H1        1 <0>        0.03708
     14 H8         -0.5228   -1.5580    1.9467 H1        1 <0>        0.03708
     15 H9          0.9076    0.5046    2.1521 H1        1 <0>        0.05012
     16 H10        -0.1450    2.4403    2.6406 HO        1 <0>        0.39801
@<TRIPOS>BOND
     1    1    4 1
     2    2    6 1
     3    3    4 1
     4    3    6 1
     5    4    5 1
     6    1    7 1
     7    1    8 1
     8    1    9 1
     9    2   10 1
    10    2   11 1
    11    2   12 1
    12    3   13 1
    13    3   14 1
    14    4   15 1
    15    5   16 1
@<TRIPOS>SUBSTRUCTURE
     1 <0>         1 GROUP 0 A     ****
