@<TRIPOS>MOLECULE
AlkEthOH_r703
   21    21     1     0     0
SMALL
USER_CHARGES

@<TRIPOS>ATOM
      1 C1         -1.1615    0.7943    1.6658 CT        1 <0>       -0.10755
      2 C2         -1.4285   -0.6978    1.4712 CT        1 <0>       -0.10755
      3 C3          0.1946    1.2496    1.1444 CT        1 <0>        0.14517
      4 C4         -1.2456   -1.1731    0.0348 CT        1 <0>        0.14517
      5 C5          0.7172   -0.0366   -0.8097 CT        1 <0>        0.52712
      6 C6          0.4387    0.0021   -2.3175 CT        1 <0>       -0.10848
      7 O1          0.2060    1.1918   -0.2778 OS        1 <0>       -0.46150
      8 O2          0.1397   -1.2377   -0.2846 OS        1 <0>       -0.46150
      9 O3          2.1395   -0.0926   -0.6267 OH        1 <0>       -0.61094
     10 H1         -1.9509    1.3572    1.1521 HC        1 <0>        0.05129
     11 H2         -1.2368    1.0285    2.7339 HC        1 <0>        0.05129
     12 H3         -0.7553   -1.2618    2.1286 HC        1 <0>        0.05129
     13 H4         -2.4543   -0.9100    1.7942 HC        1 <0>        0.05129
     14 H5          0.3377    2.3004    1.4180 H1        1 <0>        0.05627
     15 H6          1.0165    0.6818    1.5931 H1        1 <0>        0.05627
     16 H7         -1.6313   -2.1952   -0.0429 H1        1 <0>        0.05627
     17 H8         -1.8067   -0.5600   -0.6783 H1        1 <0>        0.05627
     18 H9          0.8067   -0.9105   -2.7810 HC        1 <0>        0.06003
     19 H10         0.9422    0.8583   -2.7606 HC        1 <0>        0.06003
     20 H11        -0.6320    0.0860   -2.4897 HC        1 <0>        0.06003
     21 H12         2.4366   -0.9010   -1.0684 HO        1 <0>        0.42973
@<TRIPOS>BOND
     1    1    2 1
     2    1    3 1
     3    2    4 1
     4    3    7 1
     5    4    8 1
     6    5    6 1
     7    5    7 1
     8    5    8 1
     9    5    9 1
    10    1   10 1
    11    1   11 1
    12    2   12 1
    13    2   13 1
    14    3   14 1
    15    3   15 1
    16    4   16 1
    17    4   17 1
    18    6   18 1
    19    6   19 1
    20    6   20 1
    21    9   21 1
@<TRIPOS>SUBSTRUCTURE
     1 <0>         1 GROUP 0 A     ****
