@<TRIPOS>MOLECULE
AlkEthOH_r1013
   25    25     1     0     0
SMALL
USER_CHARGES

@<TRIPOS>ATOM
      1 C1         -0.9042    0.0498    1.4518 CT        1 <0>       -0.10968
      2 C2         -1.0798   -1.4313    1.1501 CT        1 <0>        0.12493
      3 C3          0.2309   -1.3112   -0.8127 CT        1 <0>        0.12971
      4 C4          0.3894    0.5965    0.8233 CT        1 <0>       -0.05467
      5 C5          0.4978    0.2061   -0.6843 CT        1 <0>       -0.07878
      6 C6          0.5055    2.0972    1.1075 CT        1 <0>       -0.08915
      7 C7         -0.5188    0.9691   -1.5590 CT        1 <0>       -0.08519
      8 C8          1.9114    0.4953   -1.2236 CT        1 <0>       -0.08519
      9 O1         -1.0321   -1.6715   -0.2533 OS        1 <0>       -0.41191
     10 H1         -1.7664    0.6012    1.0577 HC        1 <0>        0.05080
     11 H2         -0.8949    0.2042    2.5371 HC        1 <0>        0.05080
     12 H3         -0.3123   -2.0330    1.6512 H1        1 <0>        0.04502
     13 H4         -2.0540   -1.7720    1.5151 H1        1 <0>        0.04502
     14 H5          0.2173   -1.6126   -1.8665 H1        1 <0>        0.04686
     15 H6          1.0188   -1.8990   -0.3243 H1        1 <0>        0.04686
     16 H7          1.2258    0.1114    1.3479 HC        1 <0>        0.04406
     17 H8         -0.3028    2.6263    0.6087 HC        1 <0>        0.03553
     18 H9          1.4593    2.4655    0.7378 HC        1 <0>        0.03553
     19 H10         0.4429    2.2712    2.1790 HC        1 <0>        0.03553
     20 H11        -0.3332    2.0330   -1.4703 HC        1 <0>        0.03732
     21 H12        -1.5212    0.7399   -1.2172 HC        1 <0>        0.03732
     22 H13        -0.4007    0.6588   -2.5905 HC        1 <0>        0.03732
     23 H14         2.1139    1.5573   -1.1402 HC        1 <0>        0.03732
     24 H15         1.9646    0.1922   -2.2634 HC        1 <0>        0.03732
     25 H16         2.6358   -0.0632   -0.6410 HC        1 <0>        0.03732
@<TRIPOS>BOND
     1    1    2 1
     2    1    4 1
     3    2    9 1
     4    3    5 1
     5    3    9 1
     6    4    5 1
     7    4    6 1
     8    5    7 1
     9    5    8 1
    10    1   10 1
    11    1   11 1
    12    2   12 1
    13    2   13 1
    14    3   14 1
    15    3   15 1
    16    4   16 1
    17    6   17 1
    18    6   18 1
    19    6   19 1
    20    7   20 1
    21    7   21 1
    22    7   22 1
    23    8   23 1
    24    8   24 1
    25    8   25 1
@<TRIPOS>SUBSTRUCTURE
     1 <0>         1 GROUP 0 A     ****
