@<TRIPOS>MOLECULE
AlkEthOH_r192
   21    21     1     0     0
SMALL
USER_CHARGES

@<TRIPOS>ATOM
      1 C1          0.7247    1.5529   -1.1042 CT        1 <0>       -0.10965
      2 C2          1.1994    0.1160   -1.2971 CT        1 <0>       -0.10684
      3 C3         -0.7314    1.5831   -0.6660 CT        1 <0>        0.13633
      4 C4          0.8797   -0.7334   -0.0639 CT        1 <0>        0.10072
      5 C5         -0.5879   -0.5666    0.3824 CT        1 <0>        0.35200
      6 C6         -0.8347   -1.2047    1.7511 CT        1 <0>       -0.10744
      7 O1         -0.9267    0.8209    0.5235 OS        1 <0>       -0.39557
      8 O2          1.7492   -0.3324    0.9957 OH        1 <0>       -0.58947
      9 O3         -1.4724   -1.2358   -0.5216 OH        1 <0>       -0.62321
     10 H1          1.3426    2.0323   -0.3352 HC        1 <0>        0.05326
     11 H2          0.8548    2.1214   -2.0312 HC        1 <0>        0.05326
     12 H3          0.7036   -0.3117   -2.1767 HC        1 <0>        0.05220
     13 H4          2.2779    0.1181   -1.4932 HC        1 <0>        0.05220
     14 H5         -1.0295    2.6141   -0.4500 H1        1 <0>        0.05593
     15 H6         -1.3940    1.2131   -1.4566 H1        1 <0>        0.05593
     16 H7          1.0929   -1.7840   -0.2922 H1        1 <0>        0.03252
     17 H8         -1.8759   -1.0696    2.0352 HC        1 <0>        0.05827
     18 H9         -0.1955   -0.7341    2.4946 HC        1 <0>        0.05827
     19 H10        -0.6098   -2.2679    1.7049 HC        1 <0>        0.05827
     20 H11         2.6528   -0.4878    0.6819 HO        1 <0>        0.40265
     21 H12        -1.2170   -2.1689   -0.5058 HO        1 <0>        0.41037
@<TRIPOS>BOND
     1    1    2 1
     2    1    3 1
     3    2    4 1
     4    3    7 1
     5    4    5 1
     6    4    8 1
     7    5    6 1
     8    5    7 1
     9    5    9 1
    10    1   10 1
    11    1   11 1
    12    2   12 1
    13    2   13 1
    14    3   14 1
    15    3   15 1
    16    4   16 1
    17    6   17 1
    18    6   18 1
    19    6   19 1
    20    8   20 1
    21    9   21 1
@<TRIPOS>SUBSTRUCTURE
     1 <0>         1 GROUP 0 A     ****
