@<TRIPOS>MOLECULE
AlkEthOH_r973
   26    26     1     0     0
SMALL
USER_CHARGES

@<TRIPOS>ATOM
      1 C1          1.2403    1.0691   -1.2880 CT        1 <0>       -0.10980
      2 C2          0.6805   -0.2727   -1.7658 CT        1 <0>       -0.06392
      3 C3         -1.4286   -0.0794   -0.2868 CT        1 <0>       -0.10267
      4 C4          1.9722    1.0246    0.0500 CT        1 <0>        0.12897
      5 C5          0.0227    1.2429    1.4237 CT        1 <0>        0.13543
      6 C6         -0.3157   -1.0001   -0.8369 CT        1 <0>       -0.06956
      7 C7         -1.2285    0.4069    1.1594 CT        1 <0>        0.12236
      8 C8         -0.9374   -2.1705   -1.6138 CT        1 <0>       -0.09067
      9 O1          1.1970    0.4978    1.1181 OS        1 <0>       -0.40194
     10 O2         -1.2027   -0.7186    2.0400 OH        1 <0>       -0.58654
     11 H1          1.9398    1.4399   -2.0477 HC        1 <0>        0.04274
     12 H2          0.4298    1.8045   -1.2525 HC        1 <0>        0.04274
     13 H3          0.1971   -0.0940   -2.7356 HC        1 <0>        0.03745
     14 H4          1.5211   -0.9485   -1.9703 HC        1 <0>        0.03745
     15 H5         -1.5827    0.7800   -0.9494 HC        1 <0>        0.04230
     16 H6         -2.3759   -0.6357   -0.2942 HC        1 <0>        0.04230
     17 H7          2.8591    0.3884   -0.0445 H1        1 <0>        0.04498
     18 H8          2.3262    2.0255    0.3234 H1        1 <0>        0.04498
     19 H9         -0.0172    2.1981    0.8888 H1        1 <0>        0.05058
     20 H10         0.0793    1.4759    2.4932 H1        1 <0>        0.05058
     21 H11         0.2416   -1.4527   -0.0087 HC        1 <0>        0.08571
     22 H12        -2.1017    1.0062    1.4421 H1        1 <0>        0.02427
     23 H13        -1.5068   -1.7835   -2.4534 HC        1 <0>        0.03191
     24 H14        -1.5949   -2.7306   -0.9559 HC        1 <0>        0.03191
     25 H15        -0.1478   -2.8205   -1.9785 HC        1 <0>        0.03191
     26 H16        -2.0568   -1.1638    1.9379 HO        1 <0>        0.39653
@<TRIPOS>BOND
     1    1    2 1
     2    1    4 1
     3    2    6 1
     4    3    6 1
     5    3    7 1
     6    4    9 1
     7    5    7 1
     8    5    9 1
     9    6    8 1
    10    7   10 1
    11    1   11 1
    12    1   12 1
    13    2   13 1
    14    2   14 1
    15    3   15 1
    16    3   16 1
    17    4   17 1
    18    4   18 1
    19    5   19 1
    20    5   20 1
    21    6   21 1
    22    7   22 1
    23    8   23 1
    24    8   24 1
    25    8   25 1
    26   10   26 1
@<TRIPOS>SUBSTRUCTURE
     1 <0>         1 GROUP 0 A     ****
