@<TRIPOS>MOLECULE
AlkEthOH_c727
   20    19     1     0     0
SMALL
USER_CHARGES

@<TRIPOS>ATOM
      1 C1         -0.4501   -0.9406   -1.1146 CT        1 <0>       -0.14361
      2 C2          2.3238    0.0656   -1.0145 CT        1 <0>        0.12287
      3 C3         -0.6863    0.1610    1.1531 CT        1 <0>       -0.10178
      4 C4         -0.0393    0.6803    2.4341 CT        1 <0>        0.13458
      5 C5          0.2868   -0.4894    0.1511 CT        1 <0>        0.34414
      6 O1         -1.0341    1.2621    3.2690 OH        1 <0>       -0.60887
      7 O2          0.8240   -1.6320    0.8267 OH        1 <0>       -0.62428
      8 O3          1.2981    0.4882   -0.1280 OS        1 <0>       -0.41659
      9 H1          0.2408   -1.4032   -1.8278 HC        1 <0>        0.05196
     10 H2         -1.2582   -1.6422   -0.8855 HC        1 <0>        0.05196
     11 H3         -0.9010   -0.0882   -1.6348 HC        1 <0>        0.05196
     12 H4          3.0389    0.8790   -1.1597 H1        1 <0>        0.03902
     13 H5          1.8831   -0.2218   -1.9724 H1        1 <0>        0.03902
     14 H6          2.8375   -0.7948   -0.5792 H1        1 <0>        0.03902
     15 H7         -1.4578   -0.5710    1.4316 HC        1 <0>        0.06560
     16 H8         -1.2432    0.9731    0.6661 HC        1 <0>        0.06560
     17 H9          0.7156    1.4440    2.2268 H1        1 <0>        0.03722
     18 H10         0.4338   -0.1296    2.9969 H1        1 <0>        0.03722
     19 H11        -0.5792    1.5764    4.0664 HO        1 <0>        0.40166
     20 H12         0.0889   -2.2218    1.0633 HO        1 <0>        0.41330
@<TRIPOS>BOND
     1    1    5 1
     2    2    8 1
     3    3    4 1
     4    3    5 1
     5    4    6 1
     6    5    7 1
     7    5    8 1
     8    1    9 1
     9    1   10 1
    10    1   11 1
    11    2   12 1
    12    2   13 1
    13    2   14 1
    14    3   15 1
    15    3   16 1
    16    4   17 1
    17    4   18 1
    18    6   19 1
    19    7   20 1
@<TRIPOS>SUBSTRUCTURE
     1 <0>         1 GROUP 0 A     ****
