@<TRIPOS>MOLECULE
AlkEthOH_c1202
   31    30     1     0     0
SMALL
USER_CHARGES

@<TRIPOS>ATOM
      1 C1         -0.6365    1.5527    3.6416 CT        1 <0>       -0.09760
      2 C2         -0.3779    1.3282   -2.4800 CT        1 <0>       -0.08811
      3 C3         -1.2022   -0.9564   -1.9303 CT        1 <0>       -0.08811
      4 C4         -1.6286    0.9234   -0.3506 CT        1 <0>       -0.08811
      5 C5          2.1523   -0.9066    1.2593 CT        1 <0>       -0.14525
      6 C6          0.7352   -0.0659   -0.6212 CT        1 <0>       -0.09040
      7 C7         -0.1939    0.2796    2.9525 CT        1 <0>        0.14019
      8 C8         -0.6000    0.3340   -1.3282 CT        1 <0>       -0.04380
      9 C9          0.7201   -0.5118    0.8646 CT        1 <0>        0.35528
     10 O1         -0.1231   -1.6569    0.9751 OH        1 <0>       -0.62421
     11 O2          0.2647    0.5960    1.6466 OS        1 <0>       -0.42438
     12 H1          0.1932    2.2601    3.7250 HC        1 <0>        0.04288
     13 H2         -1.4522    2.0283    3.0871 HC        1 <0>        0.04288
     14 H3         -1.0179    1.3357    4.6449 HC        1 <0>        0.04288
     15 H4          0.0498    2.2687   -2.1159 HC        1 <0>        0.03641
     16 H5          0.3138    0.9179   -3.2254 HC        1 <0>        0.03641
     17 H6         -1.3077    1.5554   -3.0099 HC        1 <0>        0.03641
     18 H7         -1.3844   -1.7082   -1.1539 HC        1 <0>        0.03641
     19 H8         -2.1585   -0.7571   -2.4276 HC        1 <0>        0.03641
     20 H9         -0.5285   -1.3981   -2.6733 HC        1 <0>        0.03641
     21 H10        -1.8151    0.2427    0.4871 HC        1 <0>        0.03641
     22 H11        -2.5880    1.1028   -0.8500 HC        1 <0>        0.03641
     23 H12        -1.3005    1.8858    0.0538 HC        1 <0>        0.03641
     24 H13         2.2014   -1.2315    2.3038 HC        1 <0>        0.04864
     25 H14         2.8473   -0.0732    1.1077 HC        1 <0>        0.04864
     26 H15         2.5250   -1.7304    0.6412 HC        1 <0>        0.04864
     27 H16         1.4177    0.7920   -0.7071 HC        1 <0>        0.05212
     28 H17         1.1813   -0.8817   -1.2085 HC        1 <0>        0.05212
     29 H18        -1.0283   -0.4235    2.8723 H1        1 <0>        0.03701
     30 H19         0.6216   -0.1938    3.5073 H1        1 <0>        0.03701
     31 H20         0.2114   -2.3461    0.3774 HO        1 <0>        0.41399
@<TRIPOS>BOND
     1    1    7 1
     2    2    8 1
     3    3    8 1
     4    4    8 1
     5    5    9 1
     6    6    8 1
     7    6    9 1
     8    7   11 1
     9    9   10 1
    10    9   11 1
    11    1   12 1
    12    1   13 1
    13    1   14 1
    14    2   15 1
    15    2   16 1
    16    2   17 1
    17    3   18 1
    18    3   19 1
    19    3   20 1
    20    4   21 1
    21    4   22 1
    22    4   23 1
    23    5   24 1
    24    5   25 1
    25    5   26 1
    26    6   27 1
    27    6   28 1
    28    7   29 1
    29    7   30 1
    30   10   31 1
@<TRIPOS>SUBSTRUCTURE
     1 <0>         1 GROUP 0 A     ****
