@<TRIPOS>MOLECULE
AlkEthOH_c1250
   25    24     1     0     0
SMALL
USER_CHARGES

@<TRIPOS>ATOM
      1 C1         -4.0708   -1.7027    2.2881 CT        1 <0>       -0.09858
      2 C2          0.3510    1.1057   -1.5898 CT        1 <0>       -0.09325
      3 C3          1.8695   -0.8641   -1.8691 CT        1 <0>       -0.09325
      4 C4         -0.1336   -0.9922   -0.2953 CT        1 <0>       -0.10714
      5 C5         -3.1138   -0.6303    1.8128 CT        1 <0>        0.13986
      6 C6          0.9761   -0.1033   -0.8888 CT        1 <0>       -0.06479
      7 C7         -1.0283   -0.3020    0.7400 CT        1 <0>        0.33194
      8 O1         -0.1768    0.1677    1.7838 OH        1 <0>       -0.62247
      9 O2         -1.9830   -1.2505    1.2165 OS        1 <0>       -0.45710
     10 H1         -4.4116   -2.3199    1.4522 HC        1 <0>        0.04298
     11 H2         -3.5898   -2.3477    3.0308 HC        1 <0>        0.04298
     12 H3         -4.9432   -1.2533    2.7742 HC        1 <0>        0.04298
     13 H4         -0.2922    0.7866   -2.4169 HC        1 <0>        0.03726
     14 H5         -0.2568    1.6972   -0.8968 HC        1 <0>        0.03726
     15 H6          1.1259    1.7590   -2.0045 HC        1 <0>        0.03726
     16 H7          1.2804   -1.2621   -2.7026 HC        1 <0>        0.03726
     17 H8          2.3715   -1.7049   -1.3786 HC        1 <0>        0.03726
     18 H9          2.6356   -0.2113   -2.2983 HC        1 <0>        0.03726
     19 H10         0.3032   -1.8945    0.1529 HC        1 <0>        0.06224
     20 H11        -0.7696   -1.3481   -1.1178 HC        1 <0>        0.06224
     21 H12        -2.7768   -0.0167    2.6535 H1        1 <0>        0.03192
     22 H13        -3.5957    0.0126    1.0702 H1        1 <0>        0.03192
     23 H14         1.6060    0.2755   -0.0743 HC        1 <0>        0.04665
     24 H15        -1.5313    0.5591    0.2853 H2        1 <0>        0.06795
     25 H16         0.4539    0.7895    1.3829 HO        1 <0>        0.40936
@<TRIPOS>BOND
     1    1    5 1
     2    2    6 1
     3    3    6 1
     4    4    6 1
     5    4    7 1
     6    5    9 1
     7    7    8 1
     8    7    9 1
     9    1   10 1
    10    1   11 1
    11    1   12 1
    12    2   13 1
    13    2   14 1
    14    2   15 1
    15    3   16 1
    16    3   17 1
    17    3   18 1
    18    4   19 1
    19    4   20 1
    20    5   21 1
    21    5   22 1
    22    6   23 1
    23    7   24 1
    24    8   25 1
@<TRIPOS>SUBSTRUCTURE
     1 <0>         1 GROUP 0 A     ****
