@<TRIPOS>MOLECULE
AlkEthOH_c275
   29    28     1     0     0
SMALL
USER_CHARGES

@<TRIPOS>ATOM
      1 C1          0.9989    1.7651    1.1625 CT        1 <0>       -0.09148
      2 C2         -1.0636    0.9053    2.2519 CT        1 <0>       -0.09148
      3 C3          0.8301   -1.4660   -2.0458 CT        1 <0>       -0.09148
      4 C4         -0.1943    0.7949   -2.1806 CT        1 <0>       -0.09148
      5 C5          0.7622   -1.3341    1.0043 CT        1 <0>       -0.08875
      6 C6         -1.4980   -1.0607   -0.0089 CT        1 <0>       -0.08875
      7 C7         -0.3117    1.0024    0.9122 CT        1 <0>       -0.05930
      8 C8          0.5676   -0.1699   -1.2582 CT        1 <0>       -0.05930
      9 C9         -0.1167   -0.3799    0.1579 CT        1 <0>       -0.03536
     10 H1          1.6896    1.1977    1.7913 HC        1 <0>        0.03328
     11 H2          1.5208    1.9511    0.2166 HC        1 <0>        0.03328
     12 H3          0.8195    2.7366    1.6330 HC        1 <0>        0.03328
     13 H4         -0.5312    0.2844    2.9768 HC        1 <0>        0.03328
     14 H5         -1.2421    1.8884    2.6966 HC        1 <0>        0.03328
     15 H6         -2.0437    0.4372    2.1023 HC        1 <0>        0.03328
     16 H7         -0.1166   -1.9750   -2.2627 HC        1 <0>        0.03328
     17 H8          1.3049   -1.2706   -3.0105 HC        1 <0>        0.03328
     18 H9          1.4517   -2.1702   -1.4854 HC        1 <0>        0.03328
     19 H10        -1.2020    0.4318   -2.4039 HC        1 <0>        0.03328
     20 H11        -0.2744    1.7962   -1.7501 HC        1 <0>        0.03328
     21 H12         0.3318    0.9082   -3.1355 HC        1 <0>        0.03328
     22 H13         1.7642   -0.9285    1.1723 HC        1 <0>        0.03440
     23 H14         0.8702   -2.3125    0.5253 HC        1 <0>        0.03440
     24 H15         0.3368   -1.4987    1.9998 HC        1 <0>        0.03440
     25 H16        -2.1817   -0.4436   -0.6005 HC        1 <0>        0.03440
     26 H17        -1.9754   -1.2484    0.9586 HC        1 <0>        0.03440
     27 H18        -1.4183   -2.0372   -0.4956 HC        1 <0>        0.03440
     28 H19        -0.9377    1.6427    0.2777 HC        1 <0>        0.04581
     29 H20         1.5593    0.2678   -1.0873 HC        1 <0>        0.04581
@<TRIPOS>BOND
     1    1    7 1
     2    2    7 1
     3    3    8 1
     4    4    8 1
     5    5    9 1
     6    6    9 1
     7    7    9 1
     8    8    9 1
     9    1   10 1
    10    1   11 1
    11    1   12 1
    12    2   13 1
    13    2   14 1
    14    2   15 1
    15    3   16 1
    16    3   17 1
    17    3   18 1
    18    4   19 1
    19    4   20 1
    20    4   21 1
    21    5   22 1
    22    5   23 1
    23    5   24 1
    24    6   25 1
    25    6   26 1
    26    6   27 1
    27    7   28 1
    28    8   29 1
@<TRIPOS>SUBSTRUCTURE
     1 <0>         1 GROUP 0 A     ****
