@<TRIPOS>MOLECULE
AlkEthOH_c1180
   27    26     1     0     0
SMALL
USER_CHARGES

@<TRIPOS>ATOM
      1 C1          0.3542   -0.0494   -5.8995 CT        1 <0>       -0.09634
      2 C2         -0.3691    1.0127   -0.3915 CT        1 <0>       -0.08897
      3 C3         -0.5768    2.4074   -2.4566 CT        1 <0>       -0.08897
      4 C4         -2.7168    0.1117   -2.2705 CT        1 <0>       -0.10116
      5 C5         -0.8108   -1.5054   -2.1829 CT        1 <0>       -0.10116
      6 C6          0.2606   -0.1557   -4.3923 CT        1 <0>        0.12734
      7 C7         -0.3101    0.9926   -1.9222 CT        1 <0>       -0.08816
      8 C8         -1.2285   -0.0821   -2.5758 CT        1 <0>        0.15942
      9 O1         -1.0902    0.0111   -4.0012 OS        1 <0>       -0.42671
     10 H1         -0.2473   -0.8239   -6.3834 HC        1 <0>        0.04275
     11 H2          0.0072    0.9318   -6.2396 HC        1 <0>        0.04275
     12 H3          1.3933   -0.1515   -6.2297 HC        1 <0>        0.04275
     13 H4         -1.3843    1.2454   -0.0508 HC        1 <0>        0.03667
     14 H5          0.2913    1.7777    0.0267 HC        1 <0>        0.03667
     15 H6         -0.0924    0.0450    0.0381 HC        1 <0>        0.03667
     16 H7         -1.5979    2.7213   -2.2120 HC        1 <0>        0.03667
     17 H8         -0.4711    2.4565   -3.5449 HC        1 <0>        0.03667
     18 H9          0.1039    3.1394   -2.0111 HC        1 <0>        0.03667
     19 H10        -3.0539    1.1183   -2.5379 HC        1 <0>        0.04375
     20 H11        -2.9492   -0.0692   -1.2170 HC        1 <0>        0.04375
     21 H12        -3.3251   -0.5742   -2.8724 HC        1 <0>        0.04375
     22 H13         0.2481   -1.6958   -2.3817 HC        1 <0>        0.04375
     23 H14        -1.4066   -2.2497   -2.7233 HC        1 <0>        0.04375
     24 H15        -0.9927   -1.6827   -1.1162 HC        1 <0>        0.04375
     25 H16         0.8644    0.6217   -3.9146 H1        1 <0>        0.02474
     26 H17         0.6069   -1.1369   -4.0543 H1        1 <0>        0.02474
     27 H18         0.7250    0.7555   -2.2067 HC        1 <0>        0.04446
@<TRIPOS>BOND
     1    1    6 1
     2    2    7 1
     3    3    7 1
     4    4    8 1
     5    5    8 1
     6    6    9 1
     7    7    8 1
     8    8    9 1
     9    1   10 1
    10    1   11 1
    11    1   12 1
    12    2   13 1
    13    2   14 1
    14    2   15 1
    15    3   16 1
    16    3   17 1
    17    3   18 1
    18    4   19 1
    19    4   20 1
    20    4   21 1
    21    5   22 1
    22    5   23 1
    23    5   24 1
    24    6   25 1
    25    6   26 1
    26    7   27 1
@<TRIPOS>SUBSTRUCTURE
     1 <0>         1 GROUP 0 A     ****
