@<TRIPOS>MOLECULE
AlkEthOH_r209
   30    30     1     0     0
SMALL
USER_CHARGES

@<TRIPOS>ATOM
      1 C1         -0.1218   -2.4518   -0.8958 CT        1 <0>       -0.08487
      2 C2         -0.0461   -2.3008    0.6226 CT        1 <0>       -0.11274
      3 C3         -0.1042   -1.1414   -1.6736 CT        1 <0>        0.13109
      4 C4          1.1523   -1.5020    1.1381 CT        1 <0>        0.15973
      5 C5         -0.4687    1.0233   -0.5686 CT        1 <0>        0.16853
      6 C6          0.2800    0.7589    0.7884 CT        1 <0>        0.32948
      7 C7         -1.7192    1.9017   -0.3468 CT        1 <0>       -0.10385
      8 C8          0.4020    1.7348   -1.6252 CT        1 <0>       -0.10385
      9 C9          0.9959    2.0133    1.3150 CT        1 <0>       -0.12795
     10 O1         -1.0121   -0.2040   -1.1041 OS        1 <0>       -0.40947
     11 O2          1.3214   -0.2075    0.5696 OS        1 <0>       -0.47135
     12 O3         -0.6794    0.3755    1.7804 OH        1 <0>       -0.59747
     13 H1          0.6938   -3.0925   -1.2510 HC        1 <0>        0.04080
     14 H2         -1.0563   -2.9799   -1.1246 HC        1 <0>        0.04080
     15 H3         -0.9830   -1.8553    0.9712 HC        1 <0>        0.06116
     16 H4         -0.0127   -3.3015    1.0711 HC        1 <0>        0.06116
     17 H5          0.9193   -0.7683   -1.7518 H1        1 <0>        0.04455
     18 H6         -0.4379   -1.3351   -2.6991 H1        1 <0>        0.04455
     19 H7          1.1111   -1.4140    2.2299 H1        1 <0>        0.03737
     20 H8          2.0672   -2.0601    0.9091 H1        1 <0>        0.03737
     21 H9         -2.2094    2.0635   -1.2991 HC        1 <0>        0.04889
     22 H10        -1.4127    2.8501    0.0771 HC        1 <0>        0.04889
     23 H11        -2.3912    1.3925    0.3332 HC        1 <0>        0.04889
     24 H12        -0.1829    1.8795   -2.5257 HC        1 <0>        0.04889
     25 H13         1.2672    1.1197   -1.8423 HC        1 <0>        0.04889
     26 H14         0.7199    2.6937   -1.2335 HC        1 <0>        0.04889
     27 H15         1.4944    1.7766    2.2496 HC        1 <0>        0.05197
     28 H16         0.2667    2.8002    1.4801 HC        1 <0>        0.05197
     29 H17         1.7281    2.3422    0.5843 HC        1 <0>        0.05197
     30 H18        -0.1786    0.2234    2.5945 HO        1 <0>        0.40571
@<TRIPOS>BOND
     1    1    2 1
     2    1    3 1
     3    2    4 1
     4    3   10 1
     5    4   11 1
     6    5    6 1
     7    5    7 1
     8    5    8 1
     9    5   10 1
    10    6    9 1
    11    6   11 1
    12    6   12 1
    13    1   13 1
    14    1   14 1
    15    2   15 1
    16    2   16 1
    17    3   17 1
    18    3   18 1
    19    4   19 1
    20    4   20 1
    21    7   21 1
    22    7   22 1
    23    7   23 1
    24    8   24 1
    25    8   25 1
    26    8   26 1
    27    9   27 1
    28    9   28 1
    29    9   29 1
    30   12   30 1
@<TRIPOS>SUBSTRUCTURE
     1 <0>         1 GROUP 0 A     ****
