@<TRIPOS>MOLECULE
AlkEthOH_r511
   28    28     1     0     0
SMALL
USER_CHARGES

@<TRIPOS>ATOM
      1 C1          0.8077    0.5486   -0.4987 CT        1 <0>       -0.10400
      2 C2          1.6686    2.8106   -1.1878 CT        1 <0>       -0.08988
      3 C3          0.8654    0.1631   -1.9698 CT        1 <0>        0.13211
      4 C4          0.6445    2.0663   -0.2987 CT        1 <0>       -0.04780
      5 C5          1.8498    2.2670   -2.6242 CT        1 <0>        0.15234
      6 C6          0.9280    2.4121    1.1794 CT        1 <0>       -0.08837
      7 C7         -0.8018    2.5045   -0.5905 CT        1 <0>       -0.08837
      8 C8          0.7773    2.7559   -3.6069 CT        1 <0>       -0.10204
      9 C9          3.2091    2.7561   -3.1593 CT        1 <0>       -0.10204
     10 O1          1.9304    0.8364   -2.6322 OS        1 <0>       -0.41517
     11 H1         -0.0000   -0.0000    0.0001 HC        1 <0>        0.05035
     12 H2          1.7483    0.2288   -0.0303 HC        1 <0>        0.05035
     13 H3          1.4487    3.8859   -1.2127 HC        1 <0>        0.04863
     14 H4          2.6430    2.7212   -0.6849 HC        1 <0>        0.04863
     15 H5          1.0627   -0.9111   -2.0523 H1        1 <0>        0.04510
     16 H6         -0.0825    0.3455   -2.4840 H1        1 <0>        0.04510
     17 H7          0.8131    3.4800    1.3196 HC        1 <0>        0.03509
     18 H8          1.9405    2.1141    1.4228 HC        1 <0>        0.03509
     19 H9          0.2245    1.8788    1.8070 HC        1 <0>        0.03509
     20 H10        -0.8874    3.5756   -0.4420 HC        1 <0>        0.03509
     21 H11        -1.4749    1.9866    0.0843 HC        1 <0>        0.03509
     22 H12        -1.0499    2.2563   -1.6170 HC        1 <0>        0.03509
     23 H13         0.9688    2.3353   -4.5900 HC        1 <0>        0.04242
     24 H14         0.8070    3.8402   -3.6646 HC        1 <0>        0.04242
     25 H15        -0.2021    2.4379   -3.2610 HC        1 <0>        0.04242
     26 H16         3.3502    2.3821   -4.1673 HC        1 <0>        0.04242
     27 H17         3.9992    2.3847   -2.5162 HC        1 <0>        0.04242
     28 H18         3.2198    3.8404   -3.1653 HC        1 <0>        0.04242
@<TRIPOS>BOND
     1    1    3 1
     2    1    4 1
     3    2    4 1
     4    2    5 1
     5    3   10 1
     6    4    6 1
     7    4    7 1
     8    5    8 1
     9    5    9 1
    10    5   10 1
    11    1   11 1
    12    1   12 1
    13    2   13 1
    14    2   14 1
    15    3   15 1
    16    3   16 1
    17    6   17 1
    18    6   18 1
    19    6   19 1
    20    7   20 1
    21    7   21 1
    22    7   22 1
    23    8   23 1
    24    8   24 1
    25    8   25 1
    26    9   26 1
    27    9   27 1
    28    9   28 1
@<TRIPOS>SUBSTRUCTURE
     1 <0>         1 GROUP 0 A     ****
