@<TRIPOS>MOLECULE
AlkEthOH_r909
   32    32     1     0     0
SMALL
USER_CHARGES

@<TRIPOS>ATOM
      1 C1          1.9572    0.4128    1.2847 CT        1 <0>       -0.07281
      2 C2          1.6871    1.6932    0.4959 CT        1 <0>       -0.06704
      3 C3          2.3037   -0.8235    0.4477 CT        1 <0>       -0.09829
      4 C4          0.5334    1.7071   -0.5089 CT        1 <0>       -0.08103
      5 C5         -1.3151    0.0743    0.4170 CT        1 <0>       -0.11743
      6 C6          1.1149   -1.7426    0.1811 CT        1 <0>        0.14226
      7 C7         -0.9041    1.5066    0.0125 CT        1 <0>       -0.04772
      8 C8         -1.0677   -1.0581   -0.6028 CT        1 <0>        0.35144
      9 C9         -1.2244    2.4735    1.1595 CT        1 <0>       -0.09157
     10 C10        -1.7557   -0.7613   -1.9390 CT        1 <0>       -0.11629
     11 O1          0.3230   -1.2304   -0.8826 OS        1 <0>       -0.41707
     12 O2         -1.6522   -2.2517   -0.0651 OH        1 <0>       -0.63138
     13 H1          2.8305    0.6255    1.9171 HC        1 <0>        0.03555
     14 H2          1.1464    0.2055    1.9881 HC        1 <0>        0.03555
     15 H3          1.5483    2.5127    1.2117 HC        1 <0>        0.03476
     16 H4          2.6032    1.9478   -0.0543 HC        1 <0>        0.03476
     17 H5          2.7807   -0.5254   -0.4930 HC        1 <0>        0.04934
     18 H6          3.0412   -1.4062    1.0141 HC        1 <0>        0.04934
     19 H7          0.5570    2.7022   -0.9776 HC        1 <0>        0.04974
     20 H8          0.7500    1.0265   -1.3362 HC        1 <0>        0.04974
     21 H9         -0.8506   -0.1855    1.3731 HC        1 <0>        0.04967
     22 H10        -2.3912    0.0855    0.6467 HC        1 <0>        0.04967
     23 H11         1.4934   -2.7138   -0.1567 H1        1 <0>        0.04949
     24 H12         0.5452   -1.9262    1.0985 H1        1 <0>        0.04949
     25 H13        -1.5648    1.7967   -0.8162 HC        1 <0>        0.03827
     26 H14        -0.5996    2.2385    2.0168 HC        1 <0>        0.03428
     27 H15        -2.2704    2.3739    1.4360 HC        1 <0>        0.03428
     28 H16        -1.0302    3.4933    0.8387 HC        1 <0>        0.03428
     29 H17        -1.5646   -1.5738   -2.6357 HC        1 <0>        0.05320
     30 H18        -1.3661    0.1661   -2.3515 HC        1 <0>        0.05320
     31 H19        -2.8274   -0.6645   -1.7835 HC        1 <0>        0.05320
     32 H20        -2.5941   -2.0617    0.0467 HO        1 <0>        0.40912
@<TRIPOS>BOND
     1    1    2 1
     2    1    3 1
     3    2    4 1
     4    3    6 1
     5    4    7 1
     6    5    7 1
     7    5    8 1
     8    6   11 1
     9    7    9 1
    10    8   10 1
    11    8   11 1
    12    8   12 1
    13    1   13 1
    14    1   14 1
    15    2   15 1
    16    2   16 1
    17    3   17 1
    18    3   18 1
    19    4   19 1
    20    4   20 1
    21    5   21 1
    22    5   22 1
    23    6   23 1
    24    6   24 1
    25    7   25 1
    26    9   26 1
    27    9   27 1
    28    9   28 1
    29   10   29 1
    30   10   30 1
    31   10   31 1
    32   12   32 1
@<TRIPOS>SUBSTRUCTURE
     1 <0>         1 GROUP 0 A     ****
