@<TRIPOS>MOLECULE
AlkEthOH_c1222
   27    26     1     0     0
SMALL
USER_CHARGES

@<TRIPOS>ATOM
      1 C1          4.4655    0.8339    2.7509 CT        1 <0>       -0.09628
      2 C2          0.8630    0.5184    0.4252 CT        1 <0>       -0.12088
      3 C3         -0.1617    0.8895    4.2156 CT        1 <0>       -0.08613
      4 C4         -0.4333    2.5308    2.3520 CT        1 <0>       -0.08613
      5 C5         -1.6530    0.3565    2.2772 CT        1 <0>       -0.08613
      6 C6          3.2113    0.1436    2.2588 CT        1 <0>        0.12928
      7 C7          0.8983    0.4211    1.9487 CT        1 <0>        0.14757
      8 C8         -0.3301    1.0282    2.6910 CT        1 <0>       -0.04838
      9 O1          2.1114    1.0274    2.4011 OS        1 <0>       -0.42119
     10 H1          4.6669    1.7380    2.1696 HC        1 <0>        0.04384
     11 H2          4.3668    1.1071    3.8066 HC        1 <0>        0.04384
     12 H3          5.3292    0.1651    2.6745 HC        1 <0>        0.04384
     13 H4          0.7862    1.5685    0.1206 HC        1 <0>        0.04201
     14 H5          1.7620    0.1001   -0.0344 HC        1 <0>        0.04201
     15 H6         -0.0162    0.0172    0.0086 HC        1 <0>        0.04201
     16 H7         -0.0822   -0.1587    4.5216 HC        1 <0>        0.03691
     17 H8         -1.0199    1.3158    4.7480 HC        1 <0>        0.03691
     18 H9          0.7362    1.4128    4.5628 HC        1 <0>        0.03691
     19 H10        -0.5549    2.6838    1.2738 HC        1 <0>        0.03691
     20 H11         0.4687    3.0704    2.6631 HC        1 <0>        0.03691
     21 H12        -1.2849    3.0008    2.8559 HC        1 <0>        0.03691
     22 H13        -1.8092    0.4345    1.1948 HC        1 <0>        0.03691
     23 H14        -1.6633   -0.7088    2.5300 HC        1 <0>        0.03691
     24 H15        -2.5144    0.8278    2.7612 HC        1 <0>        0.03691
     25 H16         3.0156   -0.7597    2.8443 H1        1 <0>        0.02283
     26 H17         3.3112   -0.1279    1.2037 H1        1 <0>        0.02283
     27 H18         0.9753   -0.6411    2.2122 H1        1 <0>        0.03287
@<TRIPOS>BOND
     1    1    6 1
     2    2    7 1
     3    3    8 1
     4    4    8 1
     5    5    8 1
     6    6    9 1
     7    7    8 1
     8    7    9 1
     9    1   10 1
    10    1   11 1
    11    1   12 1
    12    2   13 1
    13    2   14 1
    14    2   15 1
    15    3   16 1
    16    3   17 1
    17    3   18 1
    18    4   19 1
    19    4   20 1
    20    4   21 1
    21    5   22 1
    22    5   23 1
    23    5   24 1
    24    6   25 1
    25    6   26 1
    26    7   27 1
@<TRIPOS>SUBSTRUCTURE
     1 <0>         1 GROUP 0 A     ****
