@<TRIPOS>MOLECULE
AlkEthOH_r1095
   27    27     1     0     0
SMALL
USER_CHARGES

@<TRIPOS>ATOM
      1 C1         -1.3260    0.0840    1.6330 CT        1 <0>        0.09499
      2 C2         -1.3939   -1.2760    0.9521 CT        1 <0>        0.11928
      3 C3         -0.6974    1.9647    0.2931 CT        1 <0>        0.11791
      4 C4          0.2302    1.2797   -0.7150 CT        1 <0>        0.11494
      5 C5          0.7091   -1.0610   -0.2920 CT        1 <0>        0.34490
      6 C6          1.1885    2.2921   -1.3305 CT        1 <0>       -0.10322
      7 C7          1.4762   -1.9090    0.7300 CT        1 <0>       -0.10786
      8 C8          1.2249   -1.4303   -1.6910 CT        1 <0>       -0.10786
      9 O1         -1.7503    1.1025    0.7304 OS        1 <0>       -0.41007
     10 O2         -0.6914   -1.3587   -0.2832 OS        1 <0>       -0.44197
     11 O3          1.0301    0.3121   -0.0270 OS        1 <0>       -0.45699
     12 H1         -2.0229    0.0880    2.4781 H1        1 <0>        0.05260
     13 H2         -0.3333    0.2894    2.0471 H1        1 <0>        0.05260
     14 H3         -1.0606   -2.0700    1.6282 H1        1 <0>        0.05541
     15 H4         -2.4404   -1.4913    0.7085 H1        1 <0>        0.05541
     16 H5         -0.1475    2.3397    1.1650 H1        1 <0>        0.05322
     17 H6         -1.1839    2.8229   -0.1834 H1        1 <0>        0.05322
     18 H7         -0.3670    0.8190   -1.5095 H1        1 <0>        0.07303
     19 H8          1.7895    2.7585   -0.5499 HC        1 <0>        0.04294
     20 H9          0.6271    3.0655   -1.8544 HC        1 <0>        0.04294
     21 H10         1.8516    1.7948   -2.0383 HC        1 <0>        0.04294
     22 H11         1.1317   -1.6689    1.7322 HC        1 <0>        0.05194
     23 H12         2.5391   -1.6967    0.6525 HC        1 <0>        0.05194
     24 H13         1.3023   -2.9629    0.5305 HC        1 <0>        0.05194
     25 H14         0.6971   -0.8429   -2.4363 HC        1 <0>        0.05194
     26 H15         1.0517   -2.4868   -1.8716 HC        1 <0>        0.05194
     27 H16         2.2887   -1.2209   -1.7496 HC        1 <0>        0.05194
@<TRIPOS>BOND
     1    1    2 1
     2    1    9 1
     3    2   10 1
     4    3    4 1
     5    3    9 1
     6    4    6 1
     7    4   11 1
     8    5    7 1
     9    5    8 1
    10    5   10 1
    11    5   11 1
    12    1   12 1
    13    1   13 1
    14    2   14 1
    15    2   15 1
    16    3   16 1
    17    3   17 1
    18    4   18 1
    19    6   19 1
    20    6   20 1
    21    6   21 1
    22    7   22 1
    23    7   23 1
    24    7   24 1
    25    8   25 1
    26    8   26 1
    27    8   27 1
@<TRIPOS>SUBSTRUCTURE
     1 <0>         1 GROUP 0 A     ****
