@<TRIPOS>MOLECULE
AlkEthOH_c336
   30    29     1     0     0
SMALL
USER_CHARGES

@<TRIPOS>ATOM
      1 C1         -2.9509    1.3501    0.8922 CT        1 <0>       -0.09092
      2 C2         -2.2234    1.1664   -1.4905 CT        1 <0>       -0.09092
      3 C3          2.8896   -0.6113   -1.0158 CT        1 <0>       -0.08809
      4 C4          1.4332   -2.0756    0.4029 CT        1 <0>       -0.08809
      5 C5          2.1698    0.1545    1.2478 CT        1 <0>       -0.08809
      6 C6          0.4507    0.0680   -0.5736 CT        1 <0>       -0.09771
      7 C7         -1.7379    1.2941   -0.0434 CT        1 <0>       -0.09943
      8 C8         -0.7621    0.1646    0.3730 CT        1 <0>        0.14126
      9 C9          1.7283   -0.6229   -0.0100 CT        1 <0>       -0.05113
     10 O1         -1.4412   -1.0891    0.3755 OH        1 <0>       -0.59689
     11 H1         -3.5208    0.4160    0.8387 HC        1 <0>        0.03645
     12 H2         -3.6244    2.1655    0.6084 HC        1 <0>        0.03645
     13 H3         -2.6543    1.4983    1.9355 HC        1 <0>        0.03645
     14 H4         -2.7583    0.2214   -1.6352 HC        1 <0>        0.03645
     15 H5         -1.3893    1.1893   -2.1996 HC        1 <0>        0.03645
     16 H6         -2.9155    1.9728   -1.7510 HC        1 <0>        0.03645
     17 H7          3.1281    0.4098   -1.3329 HC        1 <0>        0.03571
     18 H8          3.7965   -1.0410   -0.5745 HC        1 <0>        0.03571
     19 H9          2.6599   -1.2026   -1.9081 HC        1 <0>        0.03571
     20 H10         0.6101   -2.1369    1.1215 HC        1 <0>        0.03571
     21 H11         2.3132   -2.5442    0.8572 HC        1 <0>        0.03571
     22 H12         1.1468   -2.6806   -0.4653 HC        1 <0>        0.03571
     23 H13         1.3728    0.1756    1.9997 HC        1 <0>        0.03571
     24 H14         2.4248    1.1926    1.0058 HC        1 <0>        0.03571
     25 H15         3.0520   -0.3048    1.7080 HC        1 <0>        0.03571
     26 H16         0.1465   -0.4781   -1.4767 HC        1 <0>        0.04385
     27 H17         0.7296    1.0811   -0.8932 HC        1 <0>        0.04385
     28 H18        -1.2101    2.2518    0.0537 HC        1 <0>        0.05018
     29 H19        -0.4191    0.3608    1.3937 H1        1 <0>        0.07630
     30 H20        -1.7204   -1.2531   -0.5384 HO        1 <0>        0.39574
@<TRIPOS>BOND
     1    1    7 1
     2    2    7 1
     3    3    9 1
     4    4    9 1
     5    5    9 1
     6    6    8 1
     7    6    9 1
     8    7    8 1
     9    8   10 1
    10    1   11 1
    11    1   12 1
    12    1   13 1
    13    2   14 1
    14    2   15 1
    15    2   16 1
    16    3   17 1
    17    3   18 1
    18    3   19 1
    19    4   20 1
    20    4   21 1
    21    4   22 1
    22    5   23 1
    23    5   24 1
    24    5   25 1
    25    6   26 1
    26    6   27 1
    27    7   28 1
    28    8   29 1
    29   10   30 1
@<TRIPOS>SUBSTRUCTURE
     1 <0>         1 GROUP 0 A     ****
