@<TRIPOS>MOLECULE
AlkEthOH_r824
   26    26     1     0     0
SMALL
USER_CHARGES

@<TRIPOS>ATOM
      1 C1          0.6206   -0.7760    0.5546 CT        1 <0>       -0.13146
      2 C2         -0.7737    1.9514    0.2784 CT        1 <0>        0.10076
      3 C3          0.1433    1.6564   -0.8970 CT        1 <0>        0.09827
      4 C4         -0.5395   -0.1802    1.3628 CT        1 <0>        0.14228
      5 C5          0.4129   -0.7581   -0.9790 CT        1 <0>        0.15211
      6 C6         -0.5005   -0.6998    2.7980 CT        1 <0>       -0.09307
      7 C7         -0.4974   -1.9257   -1.3944 CT        1 <0>       -0.10177
      8 C8          1.7622   -0.9241   -1.6946 CT        1 <0>       -0.10177
      9 O1         -0.3967    1.2404    1.4524 OS        1 <0>       -0.42204
     10 O2         -0.2312    0.4157   -1.4813 OS        1 <0>       -0.42300
     11 H1          1.5300   -0.2105    0.8003 HC        1 <0>        0.05848
     12 H2          0.8128   -1.8112    0.8662 HC        1 <0>        0.05848
     13 H3         -0.7057    3.0154    0.5270 H1        1 <0>        0.05610
     14 H4         -1.8203    1.7278    0.0418 H1        1 <0>        0.05610
     15 H5         -0.0158    2.4198   -1.6653 H1        1 <0>        0.05556
     16 H6          1.2017    1.6744   -0.6187 H1        1 <0>        0.05556
     17 H7         -1.5159   -0.4338    0.9345 H1        1 <0>        0.04866
     18 H8          0.4606   -0.4619    3.2511 HC        1 <0>        0.04451
     19 H9         -0.6397   -1.7797    2.8039 HC        1 <0>        0.04451
     20 H10        -1.2942   -0.2349    3.3810 HC        1 <0>        0.04451
     21 H11        -0.6378   -1.9058   -2.4703 HC        1 <0>        0.04287
     22 H12        -1.4579   -1.8253   -0.8992 HC        1 <0>        0.04287
     23 H13        -0.0334   -2.8629   -1.1042 HC        1 <0>        0.04287
     24 H14         1.6043   -0.9101   -2.7687 HC        1 <0>        0.04287
     25 H15         2.2093   -1.8703   -1.4051 HC        1 <0>        0.04287
     26 H16         2.4218   -0.1088   -1.4132 HC        1 <0>        0.04287
@<TRIPOS>BOND
     1    1    4 1
     2    1    5 1
     3    2    3 1
     4    2    9 1
     5    3   10 1
     6    4    6 1
     7    4    9 1
     8    5    7 1
     9    5    8 1
    10    5   10 1
    11    1   11 1
    12    1   12 1
    13    2   13 1
    14    2   14 1
    15    3   15 1
    16    3   16 1
    17    4   17 1
    18    6   18 1
    19    6   19 1
    20    6   20 1
    21    7   21 1
    22    7   22 1
    23    7   23 1
    24    8   24 1
    25    8   25 1
    26    8   26 1
@<TRIPOS>SUBSTRUCTURE
     1 <0>         1 GROUP 0 A     ****
