@<TRIPOS>MOLECULE
AlkEthOH_c916
   27    26     1     0     0
SMALL
USER_CHARGES

@<TRIPOS>ATOM
      1 C1          0.7635    0.0072   -2.6262 CT        1 <0>       -0.09031
      2 C2         -1.2922   -1.1789   -0.6332 CT        1 <0>       -0.08719
      3 C3         -1.1269    1.3001   -0.5950 CT        1 <0>       -0.08719
      4 C4          0.9075    1.0777    1.7718 CT        1 <0>       -0.12326
      5 C5          0.6049   -1.3917    1.7404 CT        1 <0>       -0.12326
      6 C6          0.9439   -0.0727   -1.1122 CT        1 <0>       -0.07572
      7 C7         -0.3585   -0.0017   -0.2538 CT        1 <0>       -0.02884
      8 C8         -0.0185   -0.0567    1.2985 CT        1 <0>        0.15794
      9 O1         -1.2354    0.0555    2.0562 OH        1 <0>       -0.60297
     10 H1          0.2391    0.9185   -2.9259 HC        1 <0>        0.03421
     11 H2          1.7452    0.0232   -3.1123 HC        1 <0>        0.03421
     12 H3          0.2212   -0.8575   -3.0176 HC        1 <0>        0.03421
     13 H4         -0.8266   -2.1483   -0.4241 HC        1 <0>        0.03894
     14 H5         -2.2311   -1.1461   -0.0714 HC        1 <0>        0.03894
     15 H6         -1.5356   -1.1734   -1.7010 HC        1 <0>        0.03894
     16 H7         -0.5364    2.1918   -0.3569 HC        1 <0>        0.03894
     17 H8         -2.0626    1.3753   -0.0322 HC        1 <0>        0.03894
     18 H9         -1.3639    1.3664   -1.6615 HC        1 <0>        0.03894
     19 H10         0.5217    2.0621    1.4890 HC        1 <0>        0.04218
     20 H11         1.9247    0.9732    1.3845 HC        1 <0>        0.04218
     21 H12         0.9670    1.0913    2.8672 HC        1 <0>        0.04218
     22 H13         0.0029   -2.2537    1.4400 HC        1 <0>        0.04218
     23 H14         0.7618   -1.4281    2.8229 HC        1 <0>        0.04218
     24 H15         1.6015   -1.5138    1.2979 HC        1 <0>        0.04218
     25 H16         1.4737   -1.0087   -0.9023 HC        1 <0>        0.03756
     26 H17         1.6202    0.7402   -0.8245 HC        1 <0>        0.03756
     27 H18        -0.9787   -0.0407    2.9827 HO        1 <0>        0.39633
@<TRIPOS>BOND
     1    1    6 1
     2    2    7 1
     3    3    7 1
     4    4    8 1
     5    5    8 1
     6    6    7 1
     7    7    8 1
     8    8    9 1
     9    1   10 1
    10    1   11 1
    11    1   12 1
    12    2   13 1
    13    2   14 1
    14    2   15 1
    15    3   16 1
    16    3   17 1
    17    3   18 1
    18    4   19 1
    19    4   20 1
    20    4   21 1
    21    5   22 1
    22    5   23 1
    23    5   24 1
    24    6   25 1
    25    6   26 1
    26    9   27 1
@<TRIPOS>SUBSTRUCTURE
     1 <0>         1 GROUP 0 A     ****
