@<TRIPOS>MOLECULE
AlkEthOH_c402
   32    31     1     0     0
SMALL
USER_CHARGES

@<TRIPOS>ATOM
      1 C1         -1.6011   -0.7714   -1.5925 CT        1 <0>       -0.09101
      2 C2         -0.9181    0.4567   -3.6593 CT        1 <0>       -0.09101
      3 C3         -0.6779   -0.1004    2.7536 CT        1 <0>       -0.12626
      4 C4         -0.0483   -2.3856    2.0041 CT        1 <0>       -0.12626
      5 C5          1.9696    1.2274    0.4033 CT        1 <0>       -0.13507
      6 C6          0.4986    0.6095   -1.5137 CT        1 <0>       -0.09599
      7 C7         -0.9164    0.4896   -2.1317 CT        1 <0>       -0.05894
      8 C8          0.3261   -0.9015    1.9244 CT        1 <0>        0.36218
      9 C9          0.5735    0.7134    0.0322 CT        1 <0>        0.36541
     10 O1          1.6318   -0.8102    2.4940 OH        1 <0>       -0.62572
     11 O2         -0.4035    1.6780    0.4242 OH        1 <0>       -0.62520
     12 O3          0.3044   -0.5994    0.5281 OS        1 <0>       -0.41197
     13 H1         -1.0511   -1.6748   -1.8774 HC        1 <0>        0.03593
     14 H2         -1.6659   -0.7430   -0.4996 HC        1 <0>        0.03593
     15 H3         -2.6208   -0.8582   -1.9826 HC        1 <0>        0.03593
     16 H4         -0.3295   -0.3845   -4.0402 HC        1 <0>        0.03593
     17 H5         -1.9384    0.3557   -4.0454 HC        1 <0>        0.03593
     18 H6         -0.5124    1.3829   -4.0767 HC        1 <0>        0.03593
     19 H7         -0.4539    0.9708    2.7295 HC        1 <0>        0.05231
     20 H8         -1.7005   -0.2589    2.3926 HC        1 <0>        0.05231
     21 H9         -0.6799   -0.4231    3.7990 HC        1 <0>        0.05231
     22 H10         0.6545   -2.9902    1.4180 HC        1 <0>        0.05231
     23 H11        -1.0484   -2.5671    1.5952 HC        1 <0>        0.05231
     24 H12        -0.0090   -2.7566    3.0342 HC        1 <0>        0.05231
     25 H13         2.0861    1.3230    1.4871 HC        1 <0>        0.05384
     26 H14         2.7544    0.5574    0.0377 HC        1 <0>        0.05384
     27 H15         2.1388    2.2308   -0.0039 HC        1 <0>        0.05384
     28 H16         1.0065    1.4758   -1.9593 HC        1 <0>        0.05506
     29 H17         1.0563   -0.2851   -1.8244 HC        1 <0>        0.05506
     30 H18        -1.5185    1.3485   -1.8097 HC        1 <0>        0.04274
     31 H19         1.6042   -1.1667    3.3968 HO        1 <0>        0.40685
     32 H20        -0.2274    2.5134   -0.0380 HO        1 <0>        0.40917
@<TRIPOS>BOND
     1    1    7 1
     2    2    7 1
     3    3    8 1
     4    4    8 1
     5    5    9 1
     6    6    7 1
     7    6    9 1
     8    8   10 1
     9    8   12 1
    10    9   11 1
    11    9   12 1
    12    1   13 1
    13    1   14 1
    14    1   15 1
    15    2   16 1
    16    2   17 1
    17    2   18 1
    18    3   19 1
    19    3   20 1
    20    3   21 1
    21    4   22 1
    22    4   23 1
    23    4   24 1
    24    5   25 1
    25    5   26 1
    26    5   27 1
    27    6   28 1
    28    6   29 1
    29    7   30 1
    30   10   31 1
    31   11   32 1
@<TRIPOS>SUBSTRUCTURE
     1 <0>         1 GROUP 0 A     ****
