@<TRIPOS>MOLECULE
AlkEthOH_c139
   21    20     1     0     0
SMALL
USER_CHARGES

@<TRIPOS>ATOM
      1 C1         -0.8855   -0.1030    1.7871 CT        1 <0>       -0.11841
      2 C2         -1.2606    1.7479    0.1409 CT        1 <0>       -0.11841
      3 C3          2.3764   -0.5763   -0.5861 CT        1 <0>        0.32410
      4 C4          0.0024   -0.3624   -0.5735 CT        1 <0>        0.34275
      5 C5         -1.1162    0.2315    0.3104 CT        1 <0>        0.16338
      6 O1          2.6166   -1.6843    0.2696 OH        1 <0>       -0.62915
      7 O2         -0.2967   -0.0741   -1.9398 OH        1 <0>       -0.60420
      8 O3         -2.3570   -0.3756   -0.0646 OH        1 <0>       -0.60352
      9 O4          1.2551    0.2011   -0.1798 OS        1 <0>       -0.47345
     10 H1         -0.7766   -1.1794    1.9534 HC        1 <0>        0.04942
     11 H2         -1.7172    0.2609    2.4014 HC        1 <0>        0.04942
     12 H3          0.0154    0.3958    2.1631 HC        1 <0>        0.04942
     13 H4         -1.4271    2.0179   -0.9077 HC        1 <0>        0.04942
     14 H5         -2.1346    2.1164    0.6907 HC        1 <0>        0.04942
     15 H6         -0.3767    2.2834    0.5016 HC        1 <0>        0.04942
     16 H7          3.2607    0.0688   -0.5755 H2        1 <0>        0.06455
     17 H8          2.2444   -0.9391   -1.6103 H2        1 <0>        0.06455
     18 H9          0.0106   -1.4534   -0.4515 H2        1 <0>        0.06432
     19 H10         3.3926   -2.1537   -0.0803 HO        1 <0>        0.41270
     20 H11         0.4169   -0.4550   -2.4789 HO        1 <0>        0.40762
     21 H12        -3.0325    0.0138    0.5090 HO        1 <0>        0.40665
@<TRIPOS>BOND
     1    1    5 1
     2    2    5 1
     3    3    6 1
     4    3    9 1
     5    4    5 1
     6    4    7 1
     7    4    9 1
     8    5    8 1
     9    1   10 1
    10    1   11 1
    11    1   12 1
    12    2   13 1
    13    2   14 1
    14    2   15 1
    15    3   16 1
    16    3   17 1
    17    4   18 1
    18    6   19 1
    19    7   20 1
    20    8   21 1
@<TRIPOS>SUBSTRUCTURE
     1 <0>         1 GROUP 0 A     ****
