@<TRIPOS>MOLECULE
AlkEthOH_r559
   24    24     1     0     0
SMALL
USER_CHARGES

@<TRIPOS>ATOM
      1 C1          0.7345   -0.0662   -1.5954 CT        1 <0>       -0.14254
      2 C2         -0.0042    0.8172    1.3653 CT        1 <0>       -0.13963
      3 C3          0.8358    1.4290   -1.3427 CT        1 <0>        0.13317
      4 C4         -0.4886    2.0208    0.5608 CT        1 <0>        0.13466
      5 C5          0.7578   -0.9320   -0.3344 CT        1 <0>        0.15464
      6 C6         -0.2610   -0.5809    0.7742 CT        1 <0>        0.17442
      7 C7         -1.7178   -0.7888    0.3484 CT        1 <0>       -0.12155
      8 O1         -0.4078    1.9027   -0.8498 OS        1 <0>       -0.41816
      9 O2          0.5534   -2.2838   -0.7661 OH        1 <0>       -0.58597
     10 O3         -0.0023   -1.5179    1.8397 OH        1 <0>       -0.59623
     11 H1         -0.1774   -0.2844   -2.1662 HC        1 <0>        0.05951
     12 H2          1.5672   -0.3780   -2.2393 HC        1 <0>        0.05951
     13 H3          1.0754    0.9226    1.5424 HC        1 <0>        0.05256
     14 H4         -0.4419    0.8837    2.3711 HC        1 <0>        0.05256
     15 H5          1.6729    1.6954   -0.6873 H1        1 <0>        0.04792
     16 H6          1.0043    1.9319   -2.3011 H1        1 <0>        0.04792
     17 H7         -1.5421    2.2081    0.7966 H1        1 <0>        0.04553
     18 H8          0.0592    2.9187    0.8705 H1        1 <0>        0.04553
     19 H9          1.7706   -0.9013    0.0896 H1        1 <0>        0.04105
     20 H10        -1.8386   -1.7891   -0.0595 HC        1 <0>        0.05325
     21 H11        -1.9837   -0.0559   -0.4090 HC        1 <0>        0.05325
     22 H12        -2.3694   -0.6696    1.2104 HC        1 <0>        0.05325
     23 H13         1.2837   -2.4867   -1.3674 HO        1 <0>        0.39629
     24 H14        -0.6221   -1.2884    2.5430 HO        1 <0>        0.39906
@<TRIPOS>BOND
     1    1    3 1
     2    1    5 1
     3    2    4 1
     4    2    6 1
     5    3    8 1
     6    4    8 1
     7    5    6 1
     8    5    9 1
     9    6    7 1
    10    6   10 1
    11    1   11 1
    12    1   12 1
    13    2   13 1
    14    2   14 1
    15    3   15 1
    16    3   16 1
    17    4   17 1
    18    4   18 1
    19    5   19 1
    20    7   20 1
    21    7   21 1
    22    7   22 1
    23    9   23 1
    24   10   24 1
@<TRIPOS>SUBSTRUCTURE
     1 <0>         1 GROUP 0 A     ****
