@<TRIPOS>MOLECULE
AlkEthOH_c976
   18    17     1     0     0
SMALL
USER_CHARGES

@<TRIPOS>ATOM
      1 C1          0.9450   -0.4908    0.3468 CT        1 <0>       -0.09151
      2 C2          3.4203    2.0803   -1.1965 CT        1 <0>       -0.08913
      3 C3          2.1271    0.0762   -0.4262 CT        1 <0>       -0.07530
      4 C4          2.4205    2.1121    1.1138 CT        1 <0>        0.13314
      5 C5          2.2498    1.6090   -0.3259 CT        1 <0>       -0.06063
      6 O1          3.6340    1.6327    1.6760 OH        1 <0>       -0.59825
      7 H1          1.0057   -0.2448    1.4109 HC        1 <0>        0.03166
      8 H2         -0.0021   -0.1082   -0.0460 HC        1 <0>        0.03166
      9 H3          0.9304   -1.5822    0.2616 HC        1 <0>        0.03166
     10 H4          4.3733    1.6680   -0.8485 HC        1 <0>        0.03786
     11 H5          3.4981    3.1724   -1.1848 HC        1 <0>        0.03786
     12 H6          3.2787    1.7693   -2.2370 HC        1 <0>        0.03786
     13 H7          2.0092   -0.2028   -1.4809 HC        1 <0>        0.04641
     14 H8          3.0482   -0.4063   -0.0781 HC        1 <0>        0.04641
     15 H9          1.5903    1.7818    1.7457 H1        1 <0>        0.01927
     16 H10         2.4404    3.2072    1.1356 H1        1 <0>        0.01927
     17 H11         1.3337    2.0583   -0.7308 HC        1 <0>        0.04428
     18 H12         3.6822    1.9835    2.5802 HO        1 <0>        0.39748
@<TRIPOS>BOND
     1    1    3 1
     2    2    5 1
     3    3    5 1
     4    4    5 1
     5    4    6 1
     6    1    7 1
     7    1    8 1
     8    1    9 1
     9    2   10 1
    10    2   11 1
    11    2   12 1
    12    3   13 1
    13    3   14 1
    14    4   15 1
    15    4   16 1
    16    5   17 1
    17    6   18 1
@<TRIPOS>SUBSTRUCTURE
     1 <0>         1 GROUP 0 A     ****
