@<TRIPOS>MOLECULE
AlkEthOH_c1091
   28    27     1     0     0
SMALL
USER_CHARGES

@<TRIPOS>ATOM
      1 C1         -0.4474    0.8277   -0.8199 CT        1 <0>       -0.09125
      2 C2         -0.6714   -2.8371   -4.2817 CT        1 <0>       -0.11486
      3 C3          1.6192    0.4046   -5.7873 CT        1 <0>       -0.13021
      4 C4         -0.4664    0.2190   -7.1473 CT        1 <0>       -0.13021
      5 C5          0.0366    0.3647   -2.1852 CT        1 <0>       -0.07943
      6 C6         -0.5207   -1.0174   -2.5371 CT        1 <0>       -0.08107
      7 C7         -0.0767   -1.4806   -3.9284 CT        1 <0>        0.16013
      8 C8          0.3743   -0.4441   -6.0555 CT        1 <0>        0.35031
      9 O1          0.7488   -1.7261   -6.5605 OH        1 <0>       -0.62445
     10 O2         -0.4824   -0.5335   -4.9130 OS        1 <0>       -0.42203
     11 H1         -0.1532    0.1080   -0.0495 HC        1 <0>        0.03179
     12 H2         -1.5380    0.9192   -0.8004 HC        1 <0>        0.03179
     13 H3         -0.0159    1.7995   -0.5597 HC        1 <0>        0.03179
     14 H4         -1.7663   -2.8070   -4.2517 HC        1 <0>        0.04437
     15 H5         -0.3926   -3.1214   -5.3021 HC        1 <0>        0.04437
     16 H6         -0.3234   -3.6149   -3.5951 HC        1 <0>        0.04437
     17 H7          2.2429   -0.0462   -5.0077 HC        1 <0>        0.05038
     18 H8          2.2159    0.5337   -6.6961 HC        1 <0>        0.05038
     19 H9          1.3492    1.4024   -5.4252 HC        1 <0>        0.05038
     20 H10        -1.3643   -0.3760   -7.3534 HC        1 <0>        0.05038
     21 H11         0.0890    0.2995   -8.0880 HC        1 <0>        0.05038
     22 H12        -0.8029    1.2158   -6.8423 HC        1 <0>        0.05038
     23 H13        -0.2689    1.0993   -2.9388 HC        1 <0>        0.04176
     24 H14         1.1324    0.3343   -2.1862 HC        1 <0>        0.04176
     25 H15        -0.1919   -1.7458   -1.7860 HC        1 <0>        0.04699
     26 H16        -1.6164   -0.9734   -2.4955 HC        1 <0>        0.04699
     27 H17         1.0160   -1.5470   -3.9681 H1        1 <0>        0.04478
     28 H18         1.2406   -1.5955   -7.3885 HO        1 <0>        0.41003
@<TRIPOS>BOND
     1    1    5 1
     2    2    7 1
     3    3    8 1
     4    4    8 1
     5    5    6 1
     6    6    7 1
     7    7   10 1
     8    8    9 1
     9    8   10 1
    10    1   11 1
    11    1   12 1
    12    1   13 1
    13    2   14 1
    14    2   15 1
    15    2   16 1
    16    3   17 1
    17    3   18 1
    18    3   19 1
    19    4   20 1
    20    4   21 1
    21    4   22 1
    22    5   23 1
    23    5   24 1
    24    6   25 1
    25    6   26 1
    26    7   27 1
    27    9   28 1
@<TRIPOS>SUBSTRUCTURE
     1 <0>         1 GROUP 0 A     ****
