@<TRIPOS>MOLECULE
AlkEthOH_r998
   18    18     1     0     0
SMALL
USER_CHARGES

@<TRIPOS>ATOM
      1 C1         -0.0424   -0.0732    1.5303 CT        1 <0>       -0.14518
      2 C2          1.1990   -0.7502    0.9652 CT        1 <0>        0.13767
      3 C3         -1.0880    0.1010    0.4282 CT        1 <0>        0.14757
      4 C4          0.6676    0.1317   -1.1621 CT        1 <0>        0.51421
      5 C5         -2.2817    0.9082    0.9171 CT        1 <0>       -0.09198
      6 O1          1.6821   -0.0234   -0.1632 OS        1 <0>       -0.47525
      7 O2         -0.5057    0.7960   -0.6783 OS        1 <0>       -0.42119
      8 O3          0.3692   -1.0900   -1.8371 OH        1 <0>       -0.64437
      9 H1         -0.4463   -0.6480    2.3702 HC        1 <0>        0.06115
     10 H2          0.2493    0.9168    1.9034 HC        1 <0>        0.06115
     11 H3          1.9935   -0.7729    1.7176 H1        1 <0>        0.05551
     12 H4          0.9893   -1.7853    0.6716 H1        1 <0>        0.05551
     13 H5         -1.4430   -0.8782    0.0836 H1        1 <0>        0.06332
     14 H6          1.0962    0.8059   -1.9109 H3        1 <0>        0.11652
     15 H7         -1.9539    1.8883    1.2657 HC        1 <0>        0.04690
     16 H8         -2.7740    0.3882    1.7398 HC        1 <0>        0.04690
     17 H9         -2.9991    1.0443    0.1068 HC        1 <0>        0.04690
     18 H10         1.1936   -1.3801   -2.2559 HO        1 <0>        0.42466
@<TRIPOS>BOND
     1    1    2 1
     2    1    3 1
     3    2    6 1
     4    3    5 1
     5    3    7 1
     6    4    6 1
     7    4    7 1
     8    4    8 1
     9    1    9 1
    10    1   10 1
    11    2   11 1
    12    2   12 1
    13    3   13 1
    14    4   14 1
    15    5   15 1
    16    5   16 1
    17    5   17 1
    18    8   18 1
@<TRIPOS>SUBSTRUCTURE
     1 <0>         1 GROUP 0 A     ****
