@<TRIPOS>MOLECULE
AlkEthOH_r46
   21    21     1     0     0
SMALL
USER_CHARGES

@<TRIPOS>ATOM
      1 C1         -1.0211    0.9337   -1.5630 CT        1 <0>       -0.07328
      2 C2         -1.3702   -0.5447   -1.3905 CT        1 <0>       -0.07324
      3 C3          0.3946    1.3244   -1.1446 CT        1 <0>       -0.13861
      4 C4         -1.4585   -0.9580    0.0757 CT        1 <0>       -0.13861
      5 C5          0.7863    0.8819    0.2648 CT        1 <0>        0.33982
      6 C6         -0.1087   -1.3111    0.7078 CT        1 <0>        0.33982
      7 O1          0.9948   -0.5249    0.2744 OS        1 <0>       -0.38690
      8 O2          1.9966    1.5394    0.6453 OH        1 <0>       -0.59845
      9 O3         -0.2137   -1.3408    2.1300 OH        1 <0>       -0.59845
     10 H1         -1.1522    1.2025   -2.6185 HC        1 <0>        0.04492
     11 H2         -1.7406    1.5435   -1.0021 HC        1 <0>        0.04492
     12 H3         -2.3537   -0.7073   -1.8489 HC        1 <0>        0.04492
     13 H4         -0.6611   -1.1787   -1.9351 HC        1 <0>        0.04492
     14 H5          1.1034    0.8932   -1.8642 HC        1 <0>        0.05524
     15 H6          0.4993    2.4132   -1.2325 HC        1 <0>        0.05524
     16 H7         -1.9567   -0.1711    0.6570 HC        1 <0>        0.05524
     17 H8         -2.1146   -1.8330    0.1723 HC        1 <0>        0.05524
     18 H9          0.0139    1.1772    1.0034 H2        1 <0>        0.05811
     19 H10         0.1413   -2.3484    0.3906 H2        1 <0>        0.05811
     20 H11         1.8116    2.4901    0.6169 HO        1 <0>        0.40552
     21 H12        -0.8745   -2.0173    2.3428 HO        1 <0>        0.40552
@<TRIPOS>BOND
     1    1    2 1
     2    1    3 1
     3    2    4 1
     4    3    5 1
     5    4    6 1
     6    5    7 1
     7    5    8 1
     8    6    7 1
     9    6    9 1
    10    1   10 1
    11    1   11 1
    12    2   12 1
    13    2   13 1
    14    3   14 1
    15    3   15 1
    16    4   16 1
    17    4   17 1
    18    5   18 1
    19    6   19 1
    20    8   20 1
    21    9   21 1
@<TRIPOS>SUBSTRUCTURE
     1 <0>         1 GROUP 0 A     ****
