@<TRIPOS>MOLECULE
AlkEthOH_r536
   24    24     1     0     0
SMALL
USER_CHARGES

@<TRIPOS>ATOM
      1 C1         -0.5137    0.8508   -1.2765 CT        1 <0>       -0.14109
      2 C2          0.4513    1.8250   -0.6067 CT        1 <0>        0.12704
      3 C3          1.8174    0.3164    0.6604 CT        1 <0>        0.07794
      4 C4          0.9368   -0.9135    0.4697 CT        1 <0>        0.30903
      5 C5         -1.2265   -0.1119   -0.2996 CT        1 <0>        0.16657
      6 C6         -1.7689   -1.3332   -1.0566 CT        1 <0>       -0.10311
      7 C7         -2.4121    0.6053    0.3669 CT        1 <0>       -0.10311
      8 O1          1.7335    1.2280   -0.4290 OS        1 <0>       -0.41080
      9 O2         -0.4051   -0.5604    0.7821 OS        1 <0>       -0.46347
     10 O3          1.3873   -1.9064    1.3891 OH        1 <0>       -0.59286
     11 H1         -1.2701    1.4141   -1.8375 HC        1 <0>        0.06053
     12 H2          0.0491    0.2691   -2.0184 HC        1 <0>        0.06053
     13 H3          0.6060    2.6751   -1.2799 H1        1 <0>        0.05438
     14 H4          0.0735    2.2284    0.3387 H1        1 <0>        0.05438
     15 H5          1.5733    0.8423    1.5918 H1        1 <0>        0.06292
     16 H6          2.8671    0.0114    0.7374 H1        1 <0>        0.06292
     17 H7          1.0314   -1.3205   -0.5427 H2        1 <0>        0.08475
     18 H8         -2.2661   -1.9990   -0.3575 HC        1 <0>        0.04585
     19 H9         -0.9456   -1.8564   -1.5337 HC        1 <0>        0.04585
     20 H10        -2.4769   -1.0042   -1.8114 HC        1 <0>        0.04585
     21 H11        -2.9062   -0.0776    1.0506 HC        1 <0>        0.04585
     22 H12        -3.1126    0.9266   -0.3972 HC        1 <0>        0.04585
     23 H13        -2.0475    1.4689    0.9140 HC        1 <0>        0.04585
     24 H14         1.2893   -1.5256    2.2752 HO        1 <0>        0.41835
@<TRIPOS>BOND
     1    1    2 1
     2    1    5 1
     3    2    8 1
     4    3    4 1
     5    3    8 1
     6    4    9 1
     7    4   10 1
     8    5    6 1
     9    5    7 1
    10    5    9 1
    11    1   11 1
    12    1   12 1
    13    2   13 1
    14    2   14 1
    15    3   15 1
    16    3   16 1
    17    4   17 1
    18    6   18 1
    19    6   19 1
    20    6   20 1
    21    7   21 1
    22    7   22 1
    23    7   23 1
    24   10   24 1
@<TRIPOS>SUBSTRUCTURE
     1 <0>         1 GROUP 0 A     ****
