@<TRIPOS>MOLECULE
AlkEthOH_r360
   26    26     1     0     0
SMALL
USER_CHARGES

@<TRIPOS>ATOM
      1 C1         -1.6122    1.0938   -1.4858 CT        1 <0>       -0.07730
      2 C2         -2.2513    0.1319   -0.4902 CT        1 <0>       -0.07567
      3 C3         -0.1689    0.7751   -1.8738 CT        1 <0>       -0.07538
      4 C4         -1.4774   -0.0879    0.8093 CT        1 <0>       -0.10185
      5 C5          0.8205    1.0901   -0.7511 CT        1 <0>       -0.09880
      6 C6         -0.1927   -0.8930    0.5944 CT        1 <0>        0.15459
      7 C7          1.0576   -0.0482    0.2594 CT        1 <0>        0.15756
      8 C8          1.7418    0.5376    1.5060 CT        1 <0>       -0.11777
      9 O1          0.0722   -1.6576    1.7766 OH        1 <0>       -0.59812
     10 O2          2.0103   -0.9417   -0.3448 OH        1 <0>       -0.60125
     11 H1         -2.2234    1.0897   -2.3971 HC        1 <0>        0.03806
     12 H2         -1.6695    2.1150   -1.0888 HC        1 <0>        0.03806
     13 H3         -3.2461    0.5201   -0.2373 HC        1 <0>        0.03911
     14 H4         -2.4210   -0.8348   -0.9810 HC        1 <0>        0.03911
     15 H5         -0.0702   -0.2591   -2.2216 HC        1 <0>        0.04689
     16 H6          0.0844    1.4143   -2.7296 HC        1 <0>        0.04689
     17 H7         -1.2701    0.8683    1.3038 HC        1 <0>        0.05022
     18 H8         -2.1341   -0.6386    1.4958 HC        1 <0>        0.05022
     19 H9          1.7819    1.3402   -1.2210 HC        1 <0>        0.04418
     20 H10         0.4909    1.9980   -0.2297 HC        1 <0>        0.04418
     21 H11        -0.3532   -1.6388   -0.1972 H1        1 <0>        0.05352
     22 H12         1.9145   -0.2555    2.2264 HC        1 <0>        0.04829
     23 H13         1.1003    1.2952    1.9444 HC        1 <0>        0.04829
     24 H14         2.6892    0.9827    1.2193 HC        1 <0>        0.04829
     25 H15        -0.6930   -2.2370    1.8987 HO        1 <0>        0.39958
     26 H16         2.8035   -0.4131   -0.5004 HO        1 <0>        0.39910
@<TRIPOS>BOND
     1    1    2 1
     2    1    3 1
     3    2    4 1
     4    3    5 1
     5    4    6 1
     6    5    7 1
     7    6    7 1
     8    6    9 1
     9    7    8 1
    10    7   10 1
    11    1   11 1
    12    1   12 1
    13    2   13 1
    14    2   14 1
    15    3   15 1
    16    3   16 1
    17    4   17 1
    18    4   18 1
    19    5   19 1
    20    5   20 1
    21    6   21 1
    22    8   22 1
    23    8   23 1
    24    8   24 1
    25    9   25 1
    26   10   26 1
@<TRIPOS>SUBSTRUCTURE
     1 <0>         1 GROUP 0 A     ****
