@<TRIPOS>MOLECULE
AlkEthOH_c872
   18    17     1     0     0
SMALL
USER_CHARGES

@<TRIPOS>ATOM
      1 C1         -2.4222    0.3053    1.0822 CT        1 <0>       -0.12216
      2 C2          1.7608    0.8462   -1.1074 CT        1 <0>        0.10830
      3 C3         -1.2562   -0.5056    0.5365 CT        1 <0>        0.34126
      4 C4          0.8364   -0.2434   -0.5804 CT        1 <0>        0.33193
      5 O1          2.1762    1.6757   -0.0313 OH        1 <0>       -0.58139
      6 O2         -0.7072   -1.3139    1.5730 OH        1 <0>       -0.62243
      7 O3          0.4768   -1.0748   -1.6815 OH        1 <0>       -0.62408
      8 O4         -0.2982    0.4043   -0.0051 OS        1 <0>       -0.44772
      9 H1         -2.0857    0.9822    1.8758 HC        1 <0>        0.05322
     10 H2         -2.8690    0.9229    0.2966 HC        1 <0>        0.05322
     11 H3         -3.1888   -0.3484    1.5097 HC        1 <0>        0.05322
     12 H4          1.2486    1.4646   -1.8519 H1        1 <0>        0.03799
     13 H5          2.6521    0.4119   -1.5738 H1        1 <0>        0.03799
     14 H6         -1.6260   -1.1695   -0.2522 H2        1 <0>        0.03970
     15 H7          1.3690   -0.8493    0.1629 H2        1 <0>        0.11860
     16 H8          2.7607    2.3531   -0.4086 HO        1 <0>        0.40441
     17 H9         -1.4034   -1.9101    1.8960 HO        1 <0>        0.41151
     18 H10         0.0260   -0.5120   -2.3335 HO        1 <0>        0.40643
@<TRIPOS>BOND
     1    1    3 1
     2    2    4 1
     3    2    5 1
     4    3    6 1
     5    3    8 1
     6    4    7 1
     7    4    8 1
     8    1    9 1
     9    1   10 1
    10    1   11 1
    11    2   12 1
    12    2   13 1
    13    3   14 1
    14    4   15 1
    15    5   16 1
    16    6   17 1
    17    7   18 1
@<TRIPOS>SUBSTRUCTURE
     1 <0>         1 GROUP 0 A     ****
