@<TRIPOS>MOLECULE
AlkEthOH_r62
   24    24     1     0     0
SMALL
USER_CHARGES

@<TRIPOS>ATOM
      1 C1         -1.0885    1.3978    0.2269 CT        1 <0>       -0.07160
      2 C2         -1.5266    0.0343    0.7620 CT        1 <0>       -0.07144
      3 C3          0.3393    1.8005    0.6029 CT        1 <0>       -0.07144
      4 C4         -1.5126   -1.1025   -0.2598 CT        1 <0>       -0.07144
      5 C5          1.4753    1.0053   -0.0447 CT        1 <0>       -0.07144
      6 C6         -0.3095   -1.2006   -1.1925 CT        1 <0>       -0.07144
      7 C7          1.5906   -0.4424    0.4328 CT        1 <0>       -0.07144
      8 C8          1.0321   -1.4924   -0.5276 CT        1 <0>       -0.07144
      9 H1         -1.2418    1.4765   -0.8548 HC        1 <0>        0.03573
     10 H2         -1.7513    2.1517    0.6730 HC        1 <0>        0.03573
     11 H3         -0.9546   -0.2424    1.6531 HC        1 <0>        0.03573
     12 H4         -2.5632    0.1257    1.1144 HC        1 <0>        0.03573
     13 H5          0.4700    2.8524    0.3166 HC        1 <0>        0.03573
     14 H6          0.4506    1.7722    1.6943 HC        1 <0>        0.03573
     15 H7         -1.6386   -2.0533    0.2732 HC        1 <0>        0.03573
     16 H8         -2.4049   -0.9951   -0.8911 HC        1 <0>        0.03573
     17 H9          1.4199    1.0685   -1.1369 HC        1 <0>        0.03573
     18 H10         2.4079    1.5153    0.2321 HC        1 <0>        0.03573
     19 H11        -0.5092   -2.0235   -1.8923 HC        1 <0>        0.03573
     20 H12        -0.2392   -0.3086   -1.8231 HC        1 <0>        0.03573
     21 H13         2.6570   -0.6725    0.5624 HC        1 <0>        0.03573
     22 H14         1.1576   -0.5647    1.4306 HC        1 <0>        0.03573
     23 H15         0.9761   -2.4533   -0.0010 HC        1 <0>        0.03573
     24 H16         1.7679   -1.6357   -1.3303 HC        1 <0>        0.03573
@<TRIPOS>BOND
     1    1    2 1
     2    1    3 1
     3    2    4 1
     4    3    5 1
     5    4    6 1
     6    5    7 1
     7    6    8 1
     8    7    8 1
     9    1    9 1
    10    1   10 1
    11    2   11 1
    12    2   12 1
    13    3   13 1
    14    3   14 1
    15    4   15 1
    16    4   16 1
    17    5   17 1
    18    5   18 1
    19    6   19 1
    20    6   20 1
    21    7   21 1
    22    7   22 1
    23    8   23 1
    24    8   24 1
@<TRIPOS>SUBSTRUCTURE
     1 <0>         1 GROUP 0 A     ****
