@<TRIPOS>MOLECULE
AlkEthOH_c758
   17    16     1     0     0
SMALL
USER_CHARGES

@<TRIPOS>ATOM
      1 C1          0.8901   -0.5096   -0.3823 CT        1 <0>       -0.12377
      2 C2          1.8852   -0.7571    1.9019 CT        1 <0>        0.12649
      3 C3          0.4586   -2.6361    0.9102 CT        1 <0>        0.12649
      4 C4          1.4591   -1.5061    0.6310 CT        1 <0>        0.14891
      5 O1          2.4198   -1.6690    2.8549 OH        1 <0>       -0.59941
      6 O2         -0.7639   -2.1181    1.4114 OH        1 <0>       -0.59941
      7 O3          2.6237   -2.0878    0.0371 OH        1 <0>       -0.58564
      8 H1          0.5785   -1.0226   -1.2997 HC        1 <0>        0.04880
      9 H2          1.6179    0.2629   -0.6499 HC        1 <0>        0.04880
     10 H3         -0.0060   -0.0193    0.0151 HC        1 <0>        0.04880
     11 H4          1.0379   -0.2384    2.3626 H1        1 <0>        0.03907
     12 H5          2.6683   -0.0255    1.6739 H1        1 <0>        0.03907
     13 H6          0.8629   -3.3514    1.6353 H1        1 <0>        0.03907
     14 H7          0.2527   -3.2005   -0.0069 H1        1 <0>        0.03907
     15 H8          2.6705   -1.1443    3.6317 HO        1 <0>        0.40301
     16 H9         -1.3496   -2.8775    1.5667 HO        1 <0>        0.40301
     17 H10         2.3250   -2.5225   -0.7748 HO        1 <0>        0.39764
@<TRIPOS>BOND
     1    1    4 1
     2    2    4 1
     3    2    5 1
     4    3    4 1
     5    3    6 1
     6    4    7 1
     7    1    8 1
     8    1    9 1
     9    1   10 1
    10    2   11 1
    11    2   12 1
    12    3   13 1
    13    3   14 1
    14    5   15 1
    15    6   16 1
    16    7   17 1
@<TRIPOS>SUBSTRUCTURE
     1 <0>         1 GROUP 0 A     ****
