@<TRIPOS>MOLECULE
AlkEthOH_r964
   21    21     1     0     0
SMALL
USER_CHARGES

@<TRIPOS>ATOM
      1 C1          0.3455    0.6175    1.9262 CT        1 <0>       -0.10718
      2 C2          1.3503    0.8433    0.7938 CT        1 <0>       -0.10419
      3 C3         -0.4751   -0.6595    1.7922 CT        1 <0>        0.15174
      4 C4          0.7460    0.7400   -0.6102 CT        1 <0>        0.15167
      5 C5         -0.9260   -0.9769   -0.5326 CT        1 <0>        0.52724
      6 C6          1.7727    1.1542   -1.6592 CT        1 <0>       -0.09602
      7 O1         -1.4095   -0.5148    0.7291 OS        1 <0>       -0.49507
      8 O2          0.4181   -0.6253   -0.8677 OS        1 <0>       -0.44618
      9 O3         -1.8220   -0.5785   -1.5715 OH        1 <0>       -0.62024
     10 H1          0.8913    0.5978    2.8767 HC        1 <0>        0.05168
     11 H2         -0.3344    1.4781    1.9591 HC        1 <0>        0.05168
     12 H3          1.8059    1.8312    0.9328 HC        1 <0>        0.05145
     13 H4          2.1512    0.0995    0.8985 HC        1 <0>        0.05145
     14 H5          0.1515   -1.5499    1.6651 H1        1 <0>        0.05133
     15 H6         -1.0585   -0.7978    2.7086 H1        1 <0>        0.05133
     16 H7         -0.1352    1.3855   -0.7118 H1        1 <0>        0.06253
     17 H8         -0.9499   -2.0723   -0.4997 H3        1 <0>        0.09647
     18 H9          2.6596    0.5264   -1.5789 HC        1 <0>        0.04556
     19 H10         2.0593    2.1943   -1.5077 HC        1 <0>        0.04556
     20 H11         1.3491    1.0443   -2.6570 HC        1 <0>        0.04556
     21 H12        -2.6782   -0.9807   -1.3625 HO        1 <0>        0.43363
@<TRIPOS>BOND
     1    1    2 1
     2    1    3 1
     3    2    4 1
     4    3    7 1
     5    4    6 1
     6    4    8 1
     7    5    7 1
     8    5    8 1
     9    5    9 1
    10    1   10 1
    11    1   11 1
    12    2   12 1
    13    2   13 1
    14    3   14 1
    15    3   15 1
    16    4   16 1
    17    5   17 1
    18    6   18 1
    19    6   19 1
    20    6   20 1
    21    9   21 1
@<TRIPOS>SUBSTRUCTURE
     1 <0>         1 GROUP 0 A     ****
