@<TRIPOS>MOLECULE
AlkEthOH_c615
   36    35     1     0     0
SMALL
USER_CHARGES

@<TRIPOS>ATOM
      1 C1          1.4437   -3.2607   -0.0936 CT        1 <0>       -0.13095
      2 C2         -0.9351    2.1843   -2.0995 CT        1 <0>       -0.08747
      3 C3         -0.3557   -0.2222   -2.3288 CT        1 <0>       -0.08747
      4 C4         -2.1924    0.4952   -0.7871 CT        1 <0>       -0.08747
      5 C5          1.4540    0.8026    1.9867 CT        1 <0>       -0.08954
      6 C6         -1.0071    0.5630    2.0273 CT        1 <0>       -0.08954
      7 C7          0.3595   -1.2594    0.9856 CT        1 <0>       -0.06549
      8 C8          0.2261    1.1026   -0.1675 CT        1 <0>       -0.06099
      9 C9          1.6443   -1.8140    0.3490 CT        1 <0>        0.13921
     10 C10        -0.7924    0.8497   -1.3251 CT        1 <0>       -0.04789
     11 C11         0.2412    0.2882    1.1671 CT        1 <0>       -0.03889
     12 O1          2.7091   -1.7840    1.2917 OH        1 <0>       -0.60197
     13 H1          1.1459   -3.8840    0.7566 HC        1 <0>        0.04199
     14 H2          2.3604   -3.6761   -0.5230 HC        1 <0>        0.04199
     15 H3          0.6408   -3.3360   -0.8352 HC        1 <0>        0.04199
     16 H4         -1.2473    2.9967   -1.4334 HC        1 <0>        0.03338
     17 H5         -1.6808    2.1059   -2.8992 HC        1 <0>        0.03338
     18 H6          0.0142    2.4762   -2.5630 HC        1 <0>        0.03338
     19 H7         -0.2347   -1.1972   -1.8473 HC        1 <0>        0.03338
     20 H8          0.6093    0.0354   -2.7820 HC        1 <0>        0.03338
     21 H9         -1.0661   -0.3207   -3.1536 HC        1 <0>        0.03338
     22 H10        -2.1690   -0.4455   -0.2235 HC        1 <0>        0.03338
     23 H11        -2.5835    1.2542   -0.1066 HC        1 <0>        0.03338
     24 H12        -2.9125    0.3687   -1.6033 HC        1 <0>        0.03338
     25 H13         2.3991    0.6515    1.4561 HC        1 <0>        0.03594
     26 H14         1.5238    0.3005    2.9581 HC        1 <0>        0.03594
     27 H15         1.3685    1.8787    2.1807 HC        1 <0>        0.03594
     28 H16        -1.9240    0.2325    1.5316 HC        1 <0>        0.03594
     29 H17        -1.1028    1.6285    2.2628 HC        1 <0>        0.03594
     30 H18        -0.9539    0.0224    2.9801 HC        1 <0>        0.03594
     31 H19        -0.4964   -1.6208    0.4074 HC        1 <0>        0.05050
     32 H20         0.2505   -1.7198    1.9787 HC        1 <0>        0.05050
     33 H21         0.1197    2.1646    0.1039 HC        1 <0>        0.03777
     34 H22         1.2376    1.0455   -0.5913 HC        1 <0>        0.03777
     35 H23         1.9399   -1.2214   -0.5208 H1        1 <0>        0.03499
     36 H24         3.4942   -2.1283    0.8368 HO        1 <0>        0.39490
@<TRIPOS>BOND
     1    1    9 1
     2    2   10 1
     3    3   10 1
     4    4   10 1
     5    5   11 1
     6    6   11 1
     7    7    9 1
     8    7   11 1
     9    8   10 1
    10    8   11 1
    11    9   12 1
    12    1   13 1
    13    1   14 1
    14    1   15 1
    15    2   16 1
    16    2   17 1
    17    2   18 1
    18    3   19 1
    19    3   20 1
    20    3   21 1
    21    4   22 1
    22    4   23 1
    23    4   24 1
    24    5   25 1
    25    5   26 1
    26    5   27 1
    27    6   28 1
    28    6   29 1
    29    6   30 1
    30    7   31 1
    31    7   32 1
    32    8   33 1
    33    8   34 1
    34    9   35 1
    35   12   36 1
@<TRIPOS>SUBSTRUCTURE
     1 <0>         1 GROUP 0 A     ****
