@<TRIPOS>MOLECULE
AlkEthOH_r451
   26    26     1     0     0
SMALL
USER_CHARGES

@<TRIPOS>ATOM
      1 C1         -0.1366    0.2902    1.8874 CT        1 <0>       -0.05596
      2 C2         -0.7356   -1.0848    1.5762 CT        1 <0>       -0.10952
      3 C3          0.2224    1.1965    0.6994 CT        1 <0>       -0.09568
      4 C4         -1.9570   -1.0787    0.6560 CT        1 <0>        0.14335
      5 C5         -0.8065   -0.7066   -1.4152 CT        1 <0>        0.32748
      6 C6          1.0528    0.5618   -0.4430 CT        1 <0>        0.16562
      7 C7          2.4636    0.2276    0.0691 CT        1 <0>       -0.10446
      8 C8          1.1887    1.5564   -1.6062 CT        1 <0>       -0.10446
      9 O1         -1.8180   -0.2768   -0.5106 OS        1 <0>       -0.45026
     10 O2          0.5262   -0.6856   -0.9132 OS        1 <0>       -0.45005
     11 H1         -0.8409    0.8384    2.5263 HC        1 <0>        0.03381
     12 H2          0.7613    0.1378    2.4991 HC        1 <0>        0.03381
     13 H3          0.0426   -1.7314    1.1566 HC        1 <0>        0.05163
     14 H4         -1.0194   -1.5649    2.5215 HC        1 <0>        0.05163
     15 H5         -0.7050    1.6192    0.2949 HC        1 <0>        0.05077
     16 H6          0.7658    2.0664    1.0940 HC        1 <0>        0.05077
     17 H7         -2.2219   -2.1021    0.3661 H1        1 <0>        0.04229
     18 H8         -2.8121   -0.6755    1.2096 H1        1 <0>        0.04229
     19 H9         -1.0267   -1.7336   -1.7272 H2        1 <0>        0.05881
     20 H10        -0.8691   -0.0890   -2.3161 H2        1 <0>        0.05881
     21 H11         3.0413   -0.2168   -0.7351 HC        1 <0>        0.04322
     22 H12         2.3889   -0.4728    0.8947 HC        1 <0>        0.04322
     23 H13         2.9480    1.1385    0.4060 HC        1 <0>        0.04322
     24 H14         1.7719    1.1027   -2.4016 HC        1 <0>        0.04322
     25 H15         1.6884    2.4542   -1.2554 HC        1 <0>        0.04322
     26 H16         0.2013    1.8114   -1.9789 HC        1 <0>        0.04322
@<TRIPOS>BOND
     1    1    2 1
     2    1    3 1
     3    2    4 1
     4    3    6 1
     5    4    9 1
     6    5    9 1
     7    5   10 1
     8    6    7 1
     9    6    8 1
    10    6   10 1
    11    1   11 1
    12    1   12 1
    13    2   13 1
    14    2   14 1
    15    3   15 1
    16    3   16 1
    17    4   17 1
    18    4   18 1
    19    5   19 1
    20    5   20 1
    21    7   21 1
    22    7   22 1
    23    7   23 1
    24    8   24 1
    25    8   25 1
    26    8   26 1
@<TRIPOS>SUBSTRUCTURE
     1 <0>         1 GROUP 0 A     ****
