@<TRIPOS>MOLECULE
AlkEthOH_c45
   26    25     1     0     0
SMALL
USER_CHARGES

@<TRIPOS>ATOM
      1 C1         -0.0158   -1.3327    2.5089 CT        1 <0>       -0.12740
      2 C2         -1.2355    1.4450   -1.0084 CT        1 <0>       -0.12828
      3 C3          0.7172    0.5235   -2.2771 CT        1 <0>       -0.12828
      4 C4         -0.7749   -1.5641   -0.4698 CT        1 <0>       -0.13188
      5 C5         -0.1880   -0.1530    1.5510 CT        1 <0>        0.16105
      6 C6          0.1545    0.8085   -0.8737 CT        1 <0>        0.13105
      7 C7          0.1596   -0.4603    0.0587 CT        1 <0>        0.17909
      8 O1          0.6145    0.9119    2.0619 OH        1 <0>       -0.56234
      9 O2          1.0229    1.7967   -0.2974 OH        1 <0>       -0.55487
     10 O3          1.4818   -1.0239    0.0204 OH        1 <0>       -0.57760
     11 H1          1.0089   -1.7183    2.4889 HC        1 <0>        0.04716
     12 H2         -0.7054   -2.1499    2.2837 HC        1 <0>        0.04716
     13 H3         -0.2032   -1.0106    3.5398 HC        1 <0>        0.04716
     14 H4         -1.6606    1.6589   -0.0203 HC        1 <0>        0.04364
     15 H5         -1.9427    0.7640   -1.4926 HC        1 <0>        0.04364
     16 H6         -1.2066    2.3831   -1.5700 HC        1 <0>        0.04364
     17 H7          1.7107    0.0674   -2.2417 HC        1 <0>        0.04364
     18 H8          0.7701    1.4376   -2.8783 HC        1 <0>        0.04364
     19 H9          0.0596   -0.1607   -2.8272 HC        1 <0>        0.04364
     20 H10        -0.5664   -1.8121   -1.5144 HC        1 <0>        0.04537
     21 H11        -0.7018   -2.4775    0.1285 HC        1 <0>        0.04537
     22 H12        -1.8265   -1.2683   -0.3910 HC        1 <0>        0.04537
     23 H13        -1.2282    0.1842    1.6182 H1        1 <0>        0.02139
     24 H14         0.2767    1.1077    2.9487 HO        1 <0>        0.38878
     25 H15         1.0211    2.5424   -0.9126 HO        1 <0>        0.38926
     26 H16         1.6468   -1.2465   -0.9053 HO        1 <0>        0.40060
@<TRIPOS>BOND
     1    1    5 1
     2    2    6 1
     3    3    6 1
     4    4    7 1
     5    5    7 1
     6    5    8 1
     7    6    7 1
     8    6    9 1
     9    7   10 1
    10    1   11 1
    11    1   12 1
    12    1   13 1
    13    2   14 1
    14    2   15 1
    15    2   16 1
    16    3   17 1
    17    3   18 1
    18    3   19 1
    19    4   20 1
    20    4   21 1
    21    4   22 1
    22    5   23 1
    23    8   24 1
    24    9   25 1
    25   10   26 1
@<TRIPOS>SUBSTRUCTURE
     1 <0>         1 GROUP 0 A     ****
