@<TRIPOS>MOLECULE
AlkEthOH_r1059
   16    16     1     0     0
SMALL
USER_CHARGES

@<TRIPOS>ATOM
      1 C1         -0.0635    1.4257    0.0566 CT        1 <0>        0.11291
      2 C2          0.0007    0.1050    0.8338 CT        1 <0>       -0.12324
      3 C3          0.0845   -0.5359   -0.5658 CT        1 <0>        0.12530
      4 C4         -1.2079   -0.2505    1.6735 CT        1 <0>       -0.08790
      5 C5          1.4513   -0.9904   -1.0340 CT        1 <0>       -0.10433
      6 O1         -0.2951    0.7214   -1.1890 OS        1 <0>       -0.42588
      7 H1         -0.9016    2.0782    0.3160 H1        1 <0>        0.05405
      8 H2          0.8610    2.0099    0.0110 H1        1 <0>        0.05405
      9 H3          0.9284    0.0100    1.4125 HC        1 <0>        0.06774
     10 H4         -0.6782   -1.2996   -0.7648 H1        1 <0>        0.06816
     11 H5         -2.1245   -0.1518    1.0857 HC        1 <0>        0.04085
     12 H6         -1.2796    0.4122    2.5401 HC        1 <0>        0.04085
     13 H7         -1.1353   -1.2812    2.0310 HC        1 <0>        0.04085
     14 H8          2.2003   -0.2209   -0.8298 HC        1 <0>        0.04553
     15 H9          1.4407   -1.1869   -2.1093 HC        1 <0>        0.04553
     16 H10         1.7465   -1.9073   -0.5170 HC        1 <0>        0.04553
@<TRIPOS>BOND
     1    1    2 1
     2    1    6 1
     3    2    3 1
     4    2    4 1
     5    3    5 1
     6    3    6 1
     7    1    7 1
     8    1    8 1
     9    2    9 1
    10    3   10 1
    11    4   11 1
    12    4   12 1
    13    4   13 1
    14    5   14 1
    15    5   15 1
    16    5   16 1
@<TRIPOS>SUBSTRUCTURE
     1 <0>         1 GROUP 0 A     ****
