@<TRIPOS>MOLECULE
AlkEthOH_c821
   27    26     1     0     0
SMALL
USER_CHARGES

@<TRIPOS>ATOM
      1 C1         -2.9185   -1.2686   -0.5293 CT        1 <0>       -0.12844
      2 C2          2.7825    0.9058    0.3437 CT        1 <0>       -0.12199
      3 C3          1.8397   -1.3749    0.7161 CT        1 <0>       -0.12199
      4 C4          0.0292    0.9137    1.7168 CT        1 <0>       -0.11410
      5 C5         -2.1061   -0.0722   -0.0592 CT        1 <0>        0.34238
      6 C6          1.6408   -0.0473   -0.0346 CT        1 <0>        0.13770
      7 C7          0.2261    0.5630    0.2329 CT        1 <0>        0.37492
      8 O1         -2.4548    1.0272   -0.8936 OH        1 <0>       -0.61819
      9 O2          1.7823   -0.3268   -1.4325 OH        1 <0>       -0.58955
     10 O3          0.1424    1.7657   -0.5421 OH        1 <0>       -0.60764
     11 O4         -0.7309   -0.4262   -0.1811 OS        1 <0>       -0.44350
     12 H1         -2.6708   -1.5276   -1.5636 HC        1 <0>        0.05343
     13 H2         -2.7443   -2.1381    0.1125 HC        1 <0>        0.05343
     14 H3         -3.9912   -1.0456   -0.4950 HC        1 <0>        0.05343
     15 H4          2.6722    1.8656   -0.1752 HC        1 <0>        0.04709
     16 H5          2.7671    1.1449    1.4121 HC        1 <0>        0.04709
     17 H6          3.7639    0.4934    0.0897 HC        1 <0>        0.04709
     18 H7          1.0508   -2.0972    0.4839 HC        1 <0>        0.04709
     19 H8          1.8455   -1.2094    1.8000 HC        1 <0>        0.04709
     20 H9          2.8080   -1.8283    0.4773 HC        1 <0>        0.04709
     21 H10        -0.9633    1.3406    1.8972 HC        1 <0>        0.05462
     22 H11         0.1133    0.0297    2.3561 HC        1 <0>        0.05462
     23 H12         0.7448    1.6725    2.0495 HC        1 <0>        0.05462
     24 H13        -2.3819    0.1542    0.9752 H2        1 <0>        0.03504
     25 H14        -3.4090    1.1780   -0.7873 HO        1 <0>        0.40710
     26 H15         2.6528   -0.7359   -1.5381 HO        1 <0>        0.39953
     27 H16         0.2674    1.5391   -1.4786 HO        1 <0>        0.44204
@<TRIPOS>BOND
     1    1    5 1
     2    2    6 1
     3    3    6 1
     4    4    7 1
     5    5    8 1
     6    5   11 1
     7    6    7 1
     8    6    9 1
     9    7   10 1
    10    7   11 1
    11    1   12 1
    12    1   13 1
    13    1   14 1
    14    2   15 1
    15    2   16 1
    16    2   17 1
    17    3   18 1
    18    3   19 1
    19    3   20 1
    20    4   21 1
    21    4   22 1
    22    4   23 1
    23    5   24 1
    24    8   25 1
    25    9   26 1
    26   10   27 1
@<TRIPOS>SUBSTRUCTURE
     1 <0>         1 GROUP 0 A     ****
