@<TRIPOS>MOLECULE
AlkEthOH_c519
   31    30     1     0     0
SMALL
USER_CHARGES

@<TRIPOS>ATOM
      1 C1          4.4692   -2.1799   -1.1037 CT        1 <0>       -0.10768
      2 C2          4.2659   -2.5818    1.3759 CT        1 <0>       -0.10768
      3 C3          1.3686    0.5684   -3.6381 CT        1 <0>       -0.10768
      4 C4         -0.0781   -1.2854   -2.7312 CT        1 <0>       -0.10768
      5 C5          0.8744   -0.5011    0.4304 CT        1 <0>       -0.12605
      6 C6          2.2795    1.3868   -0.3616 CT        1 <0>       -0.12605
      7 C7          3.5958   -2.0199    0.1313 CT        1 <0>        0.15395
      8 C8          0.8703   -0.1457   -2.3910 CT        1 <0>        0.15395
      9 C9          2.1510   -0.1426   -0.3425 CT        1 <0>        0.35916
     10 O1          3.3175   -0.6412    0.3318 OS        1 <0>       -0.43937
     11 O2          1.9818   -0.6610   -1.6715 OS        1 <0>       -0.43937
     12 H1          5.4351   -1.6822   -0.9743 HC        1 <0>        0.04250
     13 H2          4.6469   -3.2409   -1.3099 HC        1 <0>        0.04250
     14 H3          3.9776   -1.7656   -1.9909 HC        1 <0>        0.04250
     15 H4          5.2269   -2.0937    1.5645 HC        1 <0>        0.04250
     16 H5          4.4358   -3.6581    1.2644 HC        1 <0>        0.04250
     17 H6          3.6289   -2.4539    2.2582 HC        1 <0>        0.04250
     18 H7          1.8835   -0.1227   -4.3124 HC        1 <0>        0.04250
     19 H8          0.5308    1.0240   -4.1768 HC        1 <0>        0.04250
     20 H9          2.0551    1.3820   -3.3791 HC        1 <0>        0.04250
     21 H10         0.4023   -2.0206   -3.3839 HC        1 <0>        0.04250
     22 H11        -0.9711   -0.9005   -3.2352 HC        1 <0>        0.04250
     23 H12        -0.4235   -1.7945   -1.8247 HC        1 <0>        0.04250
     24 H13         0.7263   -1.5849    0.4791 HC        1 <0>        0.04984
     25 H14         0.9039   -0.0964    1.4483 HC        1 <0>        0.04984
     26 H15        -0.0117   -0.0653   -0.0449 HC        1 <0>        0.04984
     27 H16         3.1764    1.7069   -0.9019 HC        1 <0>        0.04984
     28 H17         1.3990    1.8500   -0.8209 HC        1 <0>        0.04984
     29 H18         2.3411    1.7915    0.6548 HC        1 <0>        0.04984
     30 H19         2.6391   -2.5276   -0.0295 H1        1 <0>        0.04273
     31 H20         0.3610    0.5710   -1.7384 H1        1 <0>        0.04273
@<TRIPOS>BOND
     1    1    7 1
     2    2    7 1
     3    3    8 1
     4    4    8 1
     5    5    9 1
     6    6    9 1
     7    7   10 1
     8    8   11 1
     9    9   10 1
    10    9   11 1
    11    1   12 1
    12    1   13 1
    13    1   14 1
    14    2   15 1
    15    2   16 1
    16    2   17 1
    17    3   18 1
    18    3   19 1
    19    3   20 1
    20    4   21 1
    21    4   22 1
    22    4   23 1
    23    5   24 1
    24    5   25 1
    25    5   26 1
    26    6   27 1
    27    6   28 1
    28    6   29 1
    29    7   30 1
    30    8   31 1
@<TRIPOS>SUBSTRUCTURE
     1 <0>         1 GROUP 0 A     ****
