@<TRIPOS>MOLECULE
AlkEthOH_r829
   27    27     1     0     0
SMALL
USER_CHARGES

@<TRIPOS>ATOM
      1 C1         -0.8679    0.7018    0.5776 CT        1 <0>       -0.08011
      2 C2          2.2591   -0.6880   -0.0708 CT        1 <0>        0.10942
      3 C3          1.1815   -1.4305    0.7102 CT        1 <0>        0.10947
      4 C4          0.9506    0.9272   -1.2517 CT        1 <0>        0.12746
      5 C5         -0.3360    1.4949   -0.6376 CT        1 <0>       -0.07560
      6 C6         -1.1423   -0.7988    0.3355 CT        1 <0>        0.35213
      7 C7         -0.1129    2.9537   -0.2143 CT        1 <0>       -0.09084
      8 C8         -1.7475   -1.4425    1.5895 CT        1 <0>       -0.14430
      9 O1          1.9370    0.6911   -0.2485 OS        1 <0>       -0.42091
     10 O2          0.0046   -1.5409   -0.0833 OS        1 <0>       -0.46580
     11 O3         -2.1264   -0.8681   -0.7067 OH        1 <0>       -0.59113
     12 H1         -0.1792    0.8345    1.4203 HC        1 <0>        0.05749
     13 H2         -1.8119    1.1748    0.8838 HC        1 <0>        0.05749
     14 H3          3.1949   -0.7232    0.4968 H1        1 <0>        0.05428
     15 H4          2.4458   -1.1536   -1.0457 H1        1 <0>        0.05428
     16 H5          1.5288   -2.4502    0.9075 H1        1 <0>        0.04946
     17 H6          0.9963   -0.9539    1.6766 H1        1 <0>        0.04946
     18 H7          0.7368    0.0285   -1.8421 H1        1 <0>        0.05170
     19 H8          1.3752    1.6517   -1.9566 H1        1 <0>        0.05170
     20 H9         -1.1047    1.5013   -1.4208 HC        1 <0>        0.06656
     21 H10         0.6443    2.9922    0.5633 HC        1 <0>        0.03624
     22 H11        -1.0435    3.3659    0.1647 HC        1 <0>        0.03624
     23 H12         0.2177    3.5320   -1.0721 HC        1 <0>        0.03624
     24 H13        -1.9338   -2.4963    1.4019 HC        1 <0>        0.04983
     25 H14        -2.6830   -0.9476    1.8352 HC        1 <0>        0.04983
     26 H15        -1.0544   -1.3396    2.4199 HC        1 <0>        0.04983
     27 H16        -2.2934   -1.8092   -0.8531 HO        1 <0>        0.41958
@<TRIPOS>BOND
     1    1    5 1
     2    1    6 1
     3    2    3 1
     4    2    9 1
     5    3   10 1
     6    4    5 1
     7    4    9 1
     8    5    7 1
     9    6    8 1
    10    6   10 1
    11    6   11 1
    12    1   12 1
    13    1   13 1
    14    2   14 1
    15    2   15 1
    16    3   16 1
    17    3   17 1
    18    4   18 1
    19    4   19 1
    20    5   20 1
    21    7   21 1
    22    7   22 1
    23    7   23 1
    24    8   24 1
    25    8   25 1
    26    8   26 1
    27   11   27 1
@<TRIPOS>SUBSTRUCTURE
     1 <0>         1 GROUP 0 A     ****
