@<TRIPOS>MOLECULE
AlkEthOH_c651
   30    29     1     0     0
SMALL
USER_CHARGES

@<TRIPOS>ATOM
      1 C1         -1.6301    0.6170   -3.2694 CT        1 <0>       -0.13175
      2 C2          2.0961    1.1261    2.0423 CT        1 <0>       -0.12390
      3 C3         -0.3755    1.4288    2.0251 CT        1 <0>       -0.12390
      4 C4          0.9686   -2.2526   -0.0777 CT        1 <0>       -0.14548
      5 C5         -0.3284   -0.7517   -1.5962 CT        1 <0>       -0.06972
      6 C6         -1.2765    0.4441   -1.7969 CT        1 <0>        0.14556
      7 C7          0.7593    0.4434    1.7404 CT        1 <0>        0.37448
      8 C8          0.0543   -1.0216   -0.1198 CT        1 <0>        0.37500
      9 O1         -0.6461    1.6379   -1.3437 OH        1 <0>       -0.58581
     10 O2          0.6088   -0.6728    2.6129 OH        1 <0>       -0.64033
     11 O3         -1.1559   -1.2985    0.5809 OH        1 <0>       -0.61986
     12 O4          0.7796    0.1232    0.3442 OS        1 <0>       -0.44320
     13 H1         -0.7232    0.7587   -3.8671 HC        1 <0>        0.03981
     14 H2         -2.1280   -0.2770   -3.6607 HC        1 <0>        0.03981
     15 H3         -2.2846    1.4803   -3.4231 HC        1 <0>        0.03981
     16 H4          2.9278    0.4392    1.8458 HC        1 <0>        0.05242
     17 H5          2.2500    2.0042    1.4057 HC        1 <0>        0.05242
     18 H6          2.1652    1.4256    3.0936 HC        1 <0>        0.05242
     19 H7         -1.3517    0.9753    1.8202 HC        1 <0>        0.05242
     20 H8         -0.3527    1.7736    3.0642 HC        1 <0>        0.05242
     21 H9         -0.3086    2.3166    1.3894 HC        1 <0>        0.05242
     22 H10         1.2690   -2.4867    0.9495 HC        1 <0>        0.05453
     23 H11         1.8925   -2.0896   -0.6401 HC        1 <0>        0.05453
     24 H12         0.4765   -3.1268   -0.5168 HC        1 <0>        0.05453
     25 H13         0.5895   -0.5672   -2.1703 HC        1 <0>        0.06372
     26 H14        -0.8154   -1.6465   -2.0051 HC        1 <0>        0.06372
     27 H15        -2.1957    0.3041   -1.2181 H1        1 <0>        0.05015
     28 H16        -1.2863    2.3554   -1.4719 HO        1 <0>        0.38951
     29 H17         0.6242   -0.3515    3.5300 HO        1 <0>        0.40953
     30 H18        -1.5917   -2.0515    0.1477 HO        1 <0>        0.41474
@<TRIPOS>BOND
     1    1    6 1
     2    2    7 1
     3    3    7 1
     4    4    8 1
     5    5    6 1
     6    5    8 1
     7    6    9 1
     8    7   10 1
     9    7   12 1
    10    8   11 1
    11    8   12 1
    12    1   13 1
    13    1   14 1
    14    1   15 1
    15    2   16 1
    16    2   17 1
    17    2   18 1
    18    3   19 1
    19    3   20 1
    20    3   21 1
    21    4   22 1
    22    4   23 1
    23    4   24 1
    24    5   25 1
    25    5   26 1
    26    6   27 1
    27    9   28 1
    28   10   29 1
    29   11   30 1
@<TRIPOS>SUBSTRUCTURE
     1 <0>         1 GROUP 0 A     ****
