@<TRIPOS>MOLECULE
AlkEthOH_c749
   23    22     1     0     0
SMALL
USER_CHARGES

@<TRIPOS>ATOM
      1 C1          0.4755    0.8174   -0.5531 CT        1 <0>       -0.10179
      2 C2         -2.4753    0.9619   -4.0621 CT        1 <0>       -0.12482
      3 C3          1.4087   -0.7635   -2.2846 CT        1 <0>       -0.10081
      4 C4          1.4726   -1.1380   -3.7611 CT        1 <0>        0.13273
      5 C5          0.5699    0.4916   -2.0374 CT        1 <0>        0.15092
      6 C6         -1.0715    1.2641   -3.5600 CT        1 <0>        0.33799
      7 O1          2.2530   -2.3176   -3.9010 OH        1 <0>       -0.60146
      8 O2         -1.0104    2.6034   -3.0790 OH        1 <0>       -0.62808
      9 O3         -0.7469    0.3091   -2.5505 OS        1 <0>       -0.41653
     10 H1          0.0379   -0.0129    0.0092 HC        1 <0>        0.04621
     11 H2         -0.1318    1.7136   -0.3845 HC        1 <0>        0.04621
     12 H3          1.4697    1.0302   -0.1457 HC        1 <0>        0.04621
     13 H4         -3.2063    1.0470   -3.2518 HC        1 <0>        0.05369
     14 H5         -2.7699    1.6736   -4.8416 HC        1 <0>        0.05369
     15 H6         -2.5290   -0.0417   -4.4953 HC        1 <0>        0.05369
     16 H7          2.4274   -0.6206   -1.9031 HC        1 <0>        0.06378
     17 H8          0.9913   -1.6145   -1.7307 HC        1 <0>        0.06378
     18 H9          0.4742   -1.3353   -4.1636 H1        1 <0>        0.02177
     19 H10         1.9417   -0.3399   -4.3452 H1        1 <0>        0.02177
     20 H11         1.0115    1.3445   -2.5644 H1        1 <0>        0.05243
     21 H12        -0.3669    1.1701   -4.3942 H2        1 <0>        0.02130
     22 H13         2.2742   -2.5287   -4.8484 HO        1 <0>        0.39760
     23 H14        -1.2361    3.2007   -3.8117 HO        1 <0>        0.40972
@<TRIPOS>BOND
     1    1    5 1
     2    2    6 1
     3    3    4 1
     4    3    5 1
     5    4    7 1
     6    5    9 1
     7    6    8 1
     8    6    9 1
     9    1   10 1
    10    1   11 1
    11    1   12 1
    12    2   13 1
    13    2   14 1
    14    2   15 1
    15    3   16 1
    16    3   17 1
    17    4   18 1
    18    4   19 1
    19    5   20 1
    20    6   21 1
    21    7   22 1
    22    8   23 1
@<TRIPOS>SUBSTRUCTURE
     1 <0>         1 GROUP 0 A     ****
