@<TRIPOS>MOLECULE
AlkEthOH_r1102
   23    23     1     0     0
SMALL
USER_CHARGES

@<TRIPOS>ATOM
      1 C1          1.9928   -0.2010   -0.8580 CT        1 <0>        0.09660
      2 C2          0.8258   -0.8758   -1.5580 CT        1 <0>        0.09874
      3 C3          0.9693    0.5288    1.1515 CT        1 <0>        0.13399
      4 C4         -0.5573    0.4305    1.0417 CT        1 <0>       -0.11237
      5 C5         -1.0606   -0.3066   -0.2193 CT        1 <0>        0.14657
      6 C6         -1.1830    1.8305    1.1114 CT        1 <0>       -0.09017
      7 C7         -2.4055   -0.9858    0.0421 CT        1 <0>       -0.09649
      8 O1          1.5764    0.9170   -0.0778 OS        1 <0>       -0.41470
      9 O2         -0.1580   -1.3377   -0.6335 OS        1 <0>       -0.41783
     10 H1          2.5427   -0.9120   -0.2301 H1        1 <0>        0.05229
     11 H2          2.6940    0.1716   -1.6119 H1        1 <0>        0.05229
     12 H3          0.3703   -0.2099   -2.3000 H1        1 <0>        0.05250
     13 H4          1.1970   -1.7524   -2.0994 H1        1 <0>        0.05250
     14 H5          1.2420    1.2819    1.8997 H1        1 <0>        0.04977
     15 H6          1.3868   -0.4192    1.5140 H1        1 <0>        0.04977
     16 H7         -0.8929   -0.1136    1.9349 HC        1 <0>        0.05578
     17 H8         -1.2132    0.4049   -1.0412 H1        1 <0>        0.04548
     18 H9         -0.8766    2.4069    0.2433 HC        1 <0>        0.03761
     19 H10        -0.8485    2.3311    2.0155 HC        1 <0>        0.03761
     20 H11        -2.2655    1.7423    1.1248 HC        1 <0>        0.03761
     21 H12        -2.3028   -1.7037    0.8533 HC        1 <0>        0.04415
     22 H13        -2.7354   -1.5047   -0.8556 HC        1 <0>        0.04415
     23 H14        -3.1470   -0.2384    0.3169 HC        1 <0>        0.04415
@<TRIPOS>BOND
     1    1    2 1
     2    1    8 1
     3    2    9 1
     4    3    4 1
     5    3    8 1
     6    4    5 1
     7    4    6 1
     8    5    7 1
     9    5    9 1
    10    1   10 1
    11    1   11 1
    12    2   12 1
    13    2   13 1
    14    3   14 1
    15    3   15 1
    16    4   16 1
    17    5   17 1
    18    6   18 1
    19    6   19 1
    20    6   20 1
    21    7   21 1
    22    7   22 1
    23    7   23 1
@<TRIPOS>SUBSTRUCTURE
     1 <0>         1 GROUP 0 A     ****
