@<TRIPOS>MOLECULE
AlkEthOH_r864
   28    28     1     0     0
SMALL
USER_CHARGES

@<TRIPOS>ATOM
      1 C1          1.2972    1.5649    0.9809 CT        1 <0>       -0.07558
      2 C2          1.0808    0.2216    1.6746 CT        1 <0>       -0.07199
      3 C3          1.2612    1.5347   -0.5447 CT        1 <0>       -0.07255
      4 C4         -0.3706   -0.2505    1.5914 CT        1 <0>       -0.06230
      5 C5         -0.0554   -0.5962   -0.9687 CT        1 <0>       -0.09914
      6 C6         -0.0075    0.9276   -1.1703 CT        1 <0>       -0.05494
      7 C7         -0.7102   -1.0755    0.3402 CT        1 <0>        0.15333
      8 C8         -0.0138    1.2414   -2.6725 CT        1 <0>       -0.09226
      9 C9         -2.2364   -1.1544    0.1903 CT        1 <0>       -0.12356
     10 O1         -0.2453   -2.4136    0.5788 OH        1 <0>       -0.60367
     11 H1          0.5586    2.2901    1.3450 HC        1 <0>        0.03628
     12 H2          2.2768    1.9549    1.2856 HC        1 <0>        0.03628
     13 H3          1.7748   -0.5362    1.2942 HC        1 <0>        0.04704
     14 H4          1.3260    0.3615    2.7353 HC        1 <0>        0.04704
     15 H5          1.3730    2.5700   -0.8927 HC        1 <0>        0.03735
     16 H6          2.1467    0.9986   -0.9108 HC        1 <0>        0.03735
     17 H7         -0.5666   -0.8708    2.4768 HC        1 <0>        0.04908
     18 H8         -1.0372    0.6175    1.6728 HC        1 <0>        0.04908
     19 H9         -0.5918   -1.0669   -1.8047 HC        1 <0>        0.04607
     20 H10         0.9606   -1.0087   -1.0446 HC        1 <0>        0.04607
     21 H11        -0.8959    1.3999   -0.7348 HC        1 <0>        0.05035
     22 H12         0.8554    0.7880   -3.1404 HC        1 <0>        0.03378
     23 H13         0.0167    2.3175   -2.8173 HC        1 <0>        0.03378
     24 H14        -0.9179    0.8405   -3.1219 HC        1 <0>        0.03378
     25 H15        -2.4826   -1.7366   -0.6928 HC        1 <0>        0.04161
     26 H16        -2.6412   -0.1518    0.0887 HC        1 <0>        0.04161
     27 H17        -2.6611   -1.6304    1.0692 HC        1 <0>        0.04161
     28 H18        -0.4668   -2.9166   -0.2164 HO        1 <0>        0.39450
@<TRIPOS>BOND
     1    1    2 1
     2    1    3 1
     3    2    4 1
     4    3    6 1
     5    4    7 1
     6    5    6 1
     7    5    7 1
     8    6    8 1
     9    7    9 1
    10    7   10 1
    11    1   11 1
    12    1   12 1
    13    2   13 1
    14    2   14 1
    15    3   15 1
    16    3   16 1
    17    4   17 1
    18    4   18 1
    19    5   19 1
    20    5   20 1
    21    6   21 1
    22    8   22 1
    23    8   23 1
    24    8   24 1
    25    9   25 1
    26    9   26 1
    27    9   27 1
    28   10   28 1
@<TRIPOS>SUBSTRUCTURE
     1 <0>         1 GROUP 0 A     ****
