@<TRIPOS>MOLECULE
AlkEthOH_r93
   16    16     1     0     0
SMALL
USER_CHARGES

@<TRIPOS>ATOM
      1 C1         -0.4603   -0.9422   -1.0405 CT        1 <0>       -0.07673
      2 C2         -0.4944   -1.2936    0.4430 CT        1 <0>       -0.11231
      3 C3         -0.5158    0.5693   -1.2346 CT        1 <0>       -0.11231
      4 C4          0.5547   -0.4986    1.2095 CT        1 <0>        0.12667
      5 C5          0.5337    1.2625   -0.3753 CT        1 <0>        0.12667
      6 O1          0.3821    0.9027    0.9978 OS        1 <0>       -0.41553
      7 H1          0.4632   -1.3324   -1.4856 HC        1 <0>        0.04177
      8 H2         -1.2972   -1.4205   -1.5610 HC        1 <0>        0.04177
      9 H3         -1.4881   -1.0489    0.8382 HC        1 <0>        0.04963
     10 H4         -0.3370   -2.3679    0.5838 HC        1 <0>        0.04963
     11 H5         -0.3732    0.8234   -2.2901 HC        1 <0>        0.04963
     12 H6         -1.5109    0.9238   -0.9391 HC        1 <0>        0.04963
     13 H7          0.4551   -0.6887    2.2829 H1        1 <0>        0.04537
     14 H8          1.5696   -0.7895    0.9141 H1        1 <0>        0.04537
     15 H9          1.5484    1.0130   -0.7074 H1        1 <0>        0.04537
     16 H10         0.4185    2.3484   -0.4506 H1        1 <0>        0.04537
@<TRIPOS>BOND
     1    1    2 1
     2    1    3 1
     3    2    4 1
     4    3    5 1
     5    4    6 1
     6    5    6 1
     7    1    7 1
     8    1    8 1
     9    2    9 1
    10    2   10 1
    11    3   11 1
    12    3   12 1
    13    4   13 1
    14    4   14 1
    15    5   15 1
    16    5   16 1
@<TRIPOS>SUBSTRUCTURE
     1 <0>         1 GROUP 0 A     ****
