@<TRIPOS>MOLECULE
AlkEthOH_r580
   25    25     1     0     0
SMALL
USER_CHARGES

@<TRIPOS>ATOM
      1 C1         -0.9914   -0.6939    0.9883 CT        1 <0>       -0.13294
      2 C2          0.2368   -1.3876    1.5917 CT        1 <0>        0.14534
      3 C3          1.8033    0.4000    1.3059 CT        1 <0>        0.33926
      4 C4          0.7280    1.2193   -0.6583 CT        1 <0>        0.53721
      5 C5         -1.0000   -0.5538   -0.5547 CT        1 <0>        0.18457
      6 C6         -1.1581   -1.9458   -1.1915 CT        1 <0>       -0.10235
      7 C7         -2.1960    0.3042   -0.9925 CT        1 <0>       -0.10235
      8 O1          1.4789   -0.9634    1.0400 OS        1 <0>       -0.43267
      9 O2          0.8966    1.3538    0.7543 OS        1 <0>       -0.51846
     10 O3          0.2260   -0.0467   -1.1025 OS        1 <0>       -0.42448
     11 O4         -0.0241    2.3137   -1.1808 OH        1 <0>       -0.61397
     12 H1         -1.8910   -1.2299    1.3191 HC        1 <0>        0.05791
     13 H2         -1.0802    0.3008    1.4410 HC        1 <0>        0.05791
     14 H3          0.2534   -1.2531    2.6796 H1        1 <0>        0.04662
     15 H4          0.1648   -2.4654    1.4114 H1        1 <0>        0.04662
     16 H5          1.8481    0.5575    2.3889 H2        1 <0>        0.06193
     17 H6          2.8053    0.5930    0.9079 H2        1 <0>        0.06193
     18 H7          1.7251    1.3057   -1.1066 H3        1 <0>        0.08344
     19 H8         -1.1640   -1.8462   -2.2718 HC        1 <0>        0.04626
     20 H9         -2.0923   -2.3866   -0.8600 HC        1 <0>        0.04626
     21 H10        -0.3283   -2.5747   -0.8867 HC        1 <0>        0.04626
     22 H11        -2.1958    0.3981   -2.0744 HC        1 <0>        0.04626
     23 H12        -2.1172    1.2893   -0.5424 HC        1 <0>        0.04626
     24 H13        -3.1179   -0.1703   -0.6692 HC        1 <0>        0.04626
     25 H14         0.4795    3.1159   -0.9749 HO        1 <0>        0.42692
@<TRIPOS>BOND
     1    1    2 1
     2    1    5 1
     3    2    8 1
     4    3    8 1
     5    3    9 1
     6    4    9 1
     7    4   10 1
     8    4   11 1
     9    5    6 1
    10    5    7 1
    11    5   10 1
    12    1   12 1
    13    1   13 1
    14    2   14 1
    15    2   15 1
    16    3   16 1
    17    3   17 1
    18    4   18 1
    19    6   19 1
    20    6   20 1
    21    6   21 1
    22    7   22 1
    23    7   23 1
    24    7   24 1
    25   11   25 1
@<TRIPOS>SUBSTRUCTURE
     1 <0>         1 GROUP 0 A     ****
