@<TRIPOS>MOLECULE
AlkEthOH_r1119
   24    24     1     0     0
SMALL
USER_CHARGES

@<TRIPOS>ATOM
      1 C1         -0.0169    0.9259   -1.7647 CT        1 <0>       -0.10735
      2 C2         -0.0971   -0.5816   -1.5293 CT        1 <0>       -0.13220
      3 C3         -1.0449    1.6907   -0.9339 CT        1 <0>        0.13175
      4 C4         -0.6728    0.4554    1.0806 CT        1 <0>        0.33409
      5 C5          0.6197   -1.0848   -0.2621 CT        1 <0>        0.34621
      6 C6         -0.7549    0.7021    2.5806 CT        1 <0>       -0.08635
      7 C7          2.1045   -1.3287   -0.5537 CT        1 <0>       -0.11544
      8 O1         -0.7372    1.7348    0.4530 OS        1 <0>       -0.43468
      9 O2          0.5779   -0.1774    0.8380 OS        1 <0>       -0.41948
     10 O3          0.0217   -2.3366    0.0916 OH        1 <0>       -0.62525
     11 H1          0.9940    1.2935   -1.5581 HC        1 <0>        0.05863
     12 H2         -0.2276    1.1182   -2.8235 HC        1 <0>        0.05863
     13 H3         -1.1530   -0.8843   -1.5038 HC        1 <0>        0.05305
     14 H4          0.3121   -1.1066   -2.4029 HC        1 <0>        0.05305
     15 H5         -1.0730    2.7296   -1.2799 H1        1 <0>        0.04639
     16 H6         -2.0540    1.2845   -1.0706 H1        1 <0>        0.04639
     17 H7         -1.5222   -0.1754    0.7886 H2        1 <0>        0.05619
     18 H8          0.0779    1.3280    2.9029 HC        1 <0>        0.05478
     19 H9         -0.7126   -0.2455    3.1183 HC        1 <0>        0.05478
     20 H10        -1.6904    1.2058    2.8262 HC        1 <0>        0.05478
     21 H11         2.5987   -1.6830    0.3473 HC        1 <0>        0.05404
     22 H12         2.5685   -0.4010   -0.8786 HC        1 <0>        0.05404
     23 H13         2.2034   -2.0756   -1.3372 HC        1 <0>        0.05404
     24 H14         0.1609   -2.9250   -0.6642 HO        1 <0>        0.40991
@<TRIPOS>BOND
     1    1    2 1
     2    1    3 1
     3    2    5 1
     4    3    8 1
     5    4    6 1
     6    4    8 1
     7    4    9 1
     8    5    7 1
     9    5    9 1
    10    5   10 1
    11    1   11 1
    12    1   12 1
    13    2   13 1
    14    2   14 1
    15    3   15 1
    16    3   16 1
    17    4   17 1
    18    6   18 1
    19    6   19 1
    20    6   20 1
    21    7   21 1
    22    7   22 1
    23    7   23 1
    24   10   24 1
@<TRIPOS>SUBSTRUCTURE
     1 <0>         1 GROUP 0 A     ****
