@<TRIPOS>MOLECULE
AlkEthOH_r721
   15    15     1     0     0
SMALL
USER_CHARGES

@<TRIPOS>ATOM
      1 C1          1.0780   -0.1731   -0.0881 CT        1 <0>        0.11031
      2 C2          1.3720   -1.3959   -0.9130 CT        1 <0>        0.11031
      3 C3          1.6227    0.4306   -2.2123 CT        1 <0>        0.51869
      4 C4          0.6327    1.2741   -3.0079 CT        1 <0>       -0.10492
      5 O1          1.6315    0.8985   -0.8525 OS        1 <0>       -0.44234
      6 O2          1.1715   -0.9342   -2.2471 OS        1 <0>       -0.44234
      7 O3          2.9279    0.5395   -2.7779 OH        1 <0>       -0.60709
      8 H1          0.0000   -0.0001   -0.0003 H1        1 <0>        0.06185
      9 H2          1.5211   -0.2062    0.9102 H1        1 <0>        0.06185
     10 H3          2.4153   -1.7140   -0.8106 H1        1 <0>        0.06185
     11 H4          0.7126   -2.2383   -0.6903 H1        1 <0>        0.06185
     12 H5          0.6049    0.9408   -4.0463 HC        1 <0>        0.06214
     13 H6          0.9291    2.3237   -2.9835 HC        1 <0>        0.06214
     14 H7         -0.3673    1.1810   -2.5818 HC        1 <0>        0.06214
     15 H8          3.1706    1.4779   -2.7375 HO        1 <0>        0.42356
@<TRIPOS>BOND
     1    1    2 1
     2    1    5 1
     3    2    6 1
     4    3    4 1
     5    3    5 1
     6    3    6 1
     7    3    7 1
     8    1    8 1
     9    1    9 1
    10    2   10 1
    11    2   11 1
    12    4   12 1
    13    4   13 1
    14    4   14 1
    15    7   15 1
@<TRIPOS>SUBSTRUCTURE
     1 <0>         1 GROUP 0 A     ****
