@<TRIPOS>MOLECULE
AlkEthOH_c834
   23    22     1     0     0
SMALL
USER_CHARGES

@<TRIPOS>ATOM
      1 C1         -1.7100   -1.2140    4.8808 CT        1 <0>       -0.12794
      2 C2         -0.4921    0.1122    0.9716 CT        1 <0>       -0.09352
      3 C3          1.6723    0.5912    2.1500 CT        1 <0>       -0.09352
      4 C4          0.7921   -1.7855    2.0067 CT        1 <0>        0.10310
      5 C5         -1.4688   -0.8591    3.4213 CT        1 <0>        0.33334
      6 C6          0.4298   -0.2995    2.1208 CT        1 <0>        0.16039
      7 O1          1.8456   -1.9690    1.0676 OH        1 <0>       -0.59413
      8 O2         -2.5962   -0.1591    2.9036 OH        1 <0>       -0.61597
      9 O3         -0.2710   -0.0901    3.3496 OS        1 <0>       -0.40837
     10 H1         -1.8345   -0.3108    5.4865 HC        1 <0>        0.05192
     11 H2         -2.6251   -1.8069    4.9895 HC        1 <0>        0.05192
     12 H3         -0.8829   -1.8084    5.2814 HC        1 <0>        0.05192
     13 H4         -1.3862   -0.5210    0.9424 HC        1 <0>        0.04988
     14 H5         -0.8084    1.1564    1.0628 HC        1 <0>        0.04988
     15 H6          0.0077   -0.0148    0.0045 HC        1 <0>        0.04988
     16 H7          2.3454    0.3108    2.9678 HC        1 <0>        0.04988
     17 H8          1.3962    1.6368    2.3298 HC        1 <0>        0.04988
     18 H9          2.2270    0.5381    1.2076 HC        1 <0>        0.04988
     19 H10         1.1389   -2.1760    2.9697 H1        1 <0>        0.02579
     20 H11        -0.0689   -2.3748    1.6736 H1        1 <0>        0.02579
     21 H12        -1.3488   -1.7837    2.8451 H2        1 <0>        0.02494
     22 H13         2.0297   -2.9213    1.0386 HO        1 <0>        0.40105
     23 H14        -3.3743   -0.7362    2.9802 HO        1 <0>        0.40401
@<TRIPOS>BOND
     1    1    5 1
     2    2    6 1
     3    3    6 1
     4    4    6 1
     5    4    7 1
     6    5    8 1
     7    5    9 1
     8    6    9 1
     9    1   10 1
    10    1   11 1
    11    1   12 1
    12    2   13 1
    13    2   14 1
    14    2   15 1
    15    3   16 1
    16    3   17 1
    17    3   18 1
    18    4   19 1
    19    4   20 1
    20    5   21 1
    21    7   22 1
    22    8   23 1
@<TRIPOS>SUBSTRUCTURE
     1 <0>         1 GROUP 0 A     ****
