@<TRIPOS>MOLECULE
AlkEthOH_r436
   30    30     1     0     0
SMALL
USER_CHARGES

@<TRIPOS>ATOM
      1 C1          0.0362    1.4322    1.7473 CT        1 <0>       -0.06367
      2 C2          0.1890    0.0218    2.3203 CT        1 <0>       -0.11055
      3 C3         -0.4226    1.5898    0.2898 CT        1 <0>       -0.07249
      4 C4          0.9321   -0.2975   -0.9610 CT        1 <0>       -0.13551
      5 C5         -1.0673   -0.8415    2.2359 CT        1 <0>        0.12994
      6 C6         -0.6756   -1.9623    0.1638 CT        1 <0>        0.09857
      7 C7         -0.2091   -1.3129   -1.1411 CT        1 <0>        0.12306
      8 C8          0.5686    1.1969   -0.8253 CT        1 <0>        0.16486
      9 C9          0.0336    1.7208   -2.1712 CT        1 <0>       -0.12844
     10 O1         -1.4944   -1.0677    0.8999 OS        1 <0>       -0.41652
     11 O2          0.3004   -2.3615   -1.9736 OH        1 <0>       -0.59638
     12 O3          1.8091    1.8818   -0.5848 OH        1 <0>       -0.60082
     13 H1         -0.6927    1.9628    2.3748 HC        1 <0>        0.04777
     14 H2          0.9842    1.9658    1.8880 HC        1 <0>        0.04777
     15 H3          1.0347   -0.4808    1.8486 HC        1 <0>        0.04560
     16 H4          0.4595    0.1188    3.3796 HC        1 <0>        0.04560
     17 H5         -1.3989    1.1256    0.1262 HC        1 <0>        0.05716
     18 H6         -0.6127    2.6685    0.1790 HC        1 <0>        0.05716
     19 H7          1.5894   -0.6060   -0.1410 HC        1 <0>        0.05126
     20 H8          1.6027   -0.3834   -1.8306 HC        1 <0>        0.05126
     21 H9         -0.9133   -1.8015    2.7428 H1        1 <0>        0.04642
     22 H10        -1.8885   -0.3358    2.7555 H1        1 <0>        0.04642
     23 H11        -1.2904   -2.8410   -0.0647 H1        1 <0>        0.04653
     24 H12         0.1761   -2.3415    0.7424 H1        1 <0>        0.04653
     25 H13        -1.0520   -0.8555   -1.6674 H1        1 <0>        0.09296
     26 H14         0.7258    1.4480   -2.9601 HC        1 <0>        0.04517
     27 H15        -0.0591    2.8001   -2.1216 HC        1 <0>        0.04517
     28 H16        -0.9370    1.2777   -2.3653 HC        1 <0>        0.04517
     29 H17         1.0560   -2.7374   -1.5002 HO        1 <0>        0.39428
     30 H18         2.4022    1.6130   -1.2989 HO        1 <0>        0.39572
@<TRIPOS>BOND
     1    1    2 1
     2    1    3 1
     3    2    5 1
     4    3    8 1
     5    4    7 1
     6    4    8 1
     7    5   10 1
     8    6    7 1
     9    6   10 1
    10    7   11 1
    11    8    9 1
    12    8   12 1
    13    1   13 1
    14    1   14 1
    15    2   15 1
    16    2   16 1
    17    3   17 1
    18    3   18 1
    19    4   19 1
    20    4   20 1
    21    5   21 1
    22    5   22 1
    23    6   23 1
    24    6   24 1
    25    7   25 1
    26    9   26 1
    27    9   27 1
    28    9   28 1
    29   11   29 1
    30   12   30 1
@<TRIPOS>SUBSTRUCTURE
     1 <0>         1 GROUP 0 A     ****
