@<TRIPOS>MOLECULE
AlkEthOH_r125
   20    20     1     0     0
SMALL
USER_CHARGES

@<TRIPOS>ATOM
      1 C1          0.4982    1.9434   -0.4374 CT        1 <0>        0.08843
      2 C2          1.7277    1.0852   -0.7093 CT        1 <0>        0.12519
      3 C3         -1.1657    1.0447    1.0303 CT        1 <0>        0.08959
      4 C4         -1.0208   -0.4486    0.7317 CT        1 <0>        0.32132
      5 C5          0.5767   -1.0159   -0.9580 CT        1 <0>        0.53244
      6 O1          0.0630    1.7626    0.9091 OS        1 <0>       -0.40304
      7 O2          1.5885   -0.2663   -0.2836 OS        1 <0>       -0.47903
      8 O3         -0.7658   -0.6168   -0.6624 OS        1 <0>       -0.51198
      9 O4         -2.2526   -1.0779    1.0760 OH        1 <0>       -0.59625
     10 O5          0.7507   -2.4103   -0.6964 OH        1 <0>       -0.59905
     11 H1          0.7696    2.9978   -0.5584 H1        1 <0>        0.05907
     12 H2         -0.3032    1.7453   -1.1576 H1        1 <0>        0.05907
     13 H3          2.0037    1.1187   -1.7690 H1        1 <0>        0.06168
     14 H4          2.5717    1.4909   -0.1406 H1        1 <0>        0.06168
     15 H5         -1.9289    1.5082    0.3924 H1        1 <0>        0.06336
     16 H6         -1.5099    1.1725    2.0630 H1        1 <0>        0.06336
     17 H7         -0.2287   -0.8872    1.3507 H2        1 <0>        0.09408
     18 H8          0.7111   -0.8808   -2.0377 H3        1 <0>        0.11679
     19 H9         -2.9364   -0.6656    0.5257 HO        1 <0>        0.42042
     20 H10         1.6306   -2.6417   -1.0287 HO        1 <0>        0.43287
@<TRIPOS>BOND
     1    1    2 1
     2    1    6 1
     3    2    7 1
     4    3    4 1
     5    3    6 1
     6    4    8 1
     7    4    9 1
     8    5    7 1
     9    5    8 1
    10    5   10 1
    11    1   11 1
    12    1   12 1
    13    2   13 1
    14    2   14 1
    15    3   15 1
    16    3   16 1
    17    4   17 1
    18    5   18 1
    19    9   19 1
    20   10   20 1
@<TRIPOS>SUBSTRUCTURE
     1 <0>         1 GROUP 0 A     ****
