@<TRIPOS>MOLECULE
AlkEthOH_c477
   22    21     1     0     0
SMALL
USER_CHARGES

@<TRIPOS>ATOM
      1 C1          1.0495   -0.3816   -0.2534 CT        1 <0>       -0.09072
      2 C2          1.1039    1.1686   -2.2261 CT        1 <0>       -0.09072
      3 C3          3.2375    2.0654    3.4247 CT        1 <0>       -0.12634
      4 C4          1.9991    1.9493   -0.0132 CT        1 <0>        0.13499
      5 C5          1.8182    0.7470   -0.9439 CT        1 <0>       -0.06877
      6 C6          2.9241    2.6444    2.0534 CT        1 <0>        0.33299
      7 O1          3.9807    3.5066    1.6421 OH        1 <0>       -0.62156
      8 O2          2.7244    1.5597    1.1457 OS        1 <0>       -0.40933
      9 H1          0.0462   -0.0483    0.0327 HC        1 <0>        0.03574
     10 H2          1.5657   -0.7163    0.6529 HC        1 <0>        0.03574
     11 H3          0.9340   -1.2452   -0.9165 HC        1 <0>        0.03574
     12 H4          0.1076    1.5654   -2.0043 HC        1 <0>        0.03574
     13 H5          0.9803    0.3150   -2.9009 HC        1 <0>        0.03574
     14 H6          1.6660    1.9434   -2.7588 HC        1 <0>        0.03574
     15 H7          4.1513    1.4635    3.3945 HC        1 <0>        0.05287
     16 H8          3.3994    2.8656    4.1557 HC        1 <0>        0.05287
     17 H9          2.4093    1.4495    3.7887 HC        1 <0>        0.05287
     18 H10         2.5635    2.7424   -0.5149 H1        1 <0>        0.03392
     19 H11         1.0314    2.3549    0.3013 H1        1 <0>        0.03392
     20 H12         2.8097    0.3560   -1.2057 HC        1 <0>        0.06461
     21 H13         2.0060    3.2394    2.1194 H2        1 <0>        0.02626
     22 H14         4.0604    4.2229    2.2940 HO        1 <0>        0.40770
@<TRIPOS>BOND
     1    1    5 1
     2    2    5 1
     3    3    6 1
     4    4    5 1
     5    4    8 1
     6    6    7 1
     7    6    8 1
     8    1    9 1
     9    1   10 1
    10    1   11 1
    11    2   12 1
    12    2   13 1
    13    2   14 1
    14    3   15 1
    15    3   16 1
    16    3   17 1
    17    4   18 1
    18    4   19 1
    19    5   20 1
    20    6   21 1
    21    7   22 1
@<TRIPOS>SUBSTRUCTURE
     1 <0>         1 GROUP 0 A     ****
