@<TRIPOS>MOLECULE
AlkEthOH_r544
   21    21     1     0     0
SMALL
USER_CHARGES

@<TRIPOS>ATOM
      1 C1         -0.1279    0.9974    1.0115 CT        1 <0>       -0.09804
      2 C2         -1.2997    1.3925    0.1169 CT        1 <0>        0.12704
      3 C3         -1.0108   -0.4923   -1.2959 CT        1 <0>        0.09698
      4 C4          0.1943   -0.9968   -0.4993 CT        1 <0>        0.08601
      5 C5          0.8986    0.1568    0.2375 CT        1 <0>        0.15311
      6 C6          1.9992   -0.3385    1.1788 CT        1 <0>       -0.11672
      7 O1         -1.9089    0.2383   -0.4575 OS        1 <0>       -0.41194
      8 O2         -0.2571   -1.9685    0.4430 OH        1 <0>       -0.59013
      9 O3          1.5123    1.0111   -0.7350 OH        1 <0>       -0.60002
     10 H1          0.3366    1.9079    1.4082 HC        1 <0>        0.06682
     11 H2         -0.5112    0.4161    1.8594 HC        1 <0>        0.06682
     12 H3         -2.0603    1.9086    0.7116 H1        1 <0>        0.05557
     13 H4         -0.9878    2.0768   -0.6806 H1        1 <0>        0.05557
     14 H5         -0.7024    0.1429   -2.1342 H1        1 <0>        0.05749
     15 H6         -1.5750   -1.3379   -1.7031 H1        1 <0>        0.05749
     16 H7          0.8867   -1.4949   -1.1873 H1        1 <0>        0.03622
     17 H8          2.7193   -0.9318    0.6197 HC        1 <0>        0.04954
     18 H9          1.5613   -0.9511    1.9636 HC        1 <0>        0.04954
     19 H10         2.5066    0.5123    1.6282 HC        1 <0>        0.04954
     20 H11        -0.6638   -2.6823   -0.0716 HO        1 <0>        0.40825
     21 H12         2.1526    0.4617   -1.2085 HO        1 <0>        0.40086
@<TRIPOS>BOND
     1    1    2 1
     2    1    5 1
     3    2    7 1
     4    3    4 1
     5    3    7 1
     6    4    5 1
     7    4    8 1
     8    5    6 1
     9    5    9 1
    10    1   10 1
    11    1   11 1
    12    2   12 1
    13    2   13 1
    14    3   14 1
    15    3   15 1
    16    4   16 1
    17    6   17 1
    18    6   18 1
    19    6   19 1
    20    8   20 1
    21    9   21 1
@<TRIPOS>SUBSTRUCTURE
     1 <0>         1 GROUP 0 A     ****
