@<TRIPOS>MOLECULE
AlkEthOH_r158
   19    19     1     0     0
SMALL
USER_CHARGES

@<TRIPOS>ATOM
      1 C1          1.0566   -1.3341   -0.7157 CT        1 <0>        0.09282
      2 C2          1.3950   -1.4258    0.7675 CT        1 <0>        0.11374
      3 C3          0.0271    0.6843   -1.4872 CT        1 <0>        0.09374
      4 C4         -0.6214   -0.4202    1.6013 CT        1 <0>        0.33114
      5 C5         -0.7713    1.0827   -0.2442 CT        1 <0>        0.30694
      6 O1          1.2434    0.0022   -1.1793 OS        1 <0>       -0.39968
      7 O2          0.8022   -0.3973    1.5534 OS        1 <0>       -0.44245
      8 O3         -1.2785   -0.0977    0.3766 OS        1 <0>       -0.49506
      9 O4         -1.8531    1.9059   -0.6724 OH        1 <0>       -0.59817
     10 H1          1.7436   -1.9779   -1.2756 H1        1 <0>        0.05493
     11 H2          0.0467   -1.7033   -0.9259 H1        1 <0>        0.05493
     12 H3          1.1290   -2.4088    1.1716 H1        1 <0>        0.05612
     13 H4          2.4771   -1.3065    0.8885 H1        1 <0>        0.05612
     14 H5         -0.5764    0.0735   -2.1707 H1        1 <0>        0.06081
     15 H6          0.2994    1.5884   -2.0437 H1        1 <0>        0.06081
     16 H7         -0.9663   -1.4065    1.9301 H2        1 <0>        0.06738
     17 H8         -0.9398    0.3041    2.3589 H2        1 <0>        0.06738
     18 H9         -0.1467    1.6691    0.4410 H2        1 <0>        0.10501
     19 H10        -2.3825    1.3705   -1.2835 HO        1 <0>        0.41349
@<TRIPOS>BOND
     1    1    2 1
     2    1    6 1
     3    2    7 1
     4    3    5 1
     5    3    6 1
     6    4    7 1
     7    4    8 1
     8    5    8 1
     9    5    9 1
    10    1   10 1
    11    1   11 1
    12    2   12 1
    13    2   13 1
    14    3   14 1
    15    3   15 1
    16    4   16 1
    17    4   17 1
    18    5   18 1
    19    9   19 1
@<TRIPOS>SUBSTRUCTURE
     1 <0>         1 GROUP 0 A     ****
