@<TRIPOS>MOLECULE
AlkEthOH_r945
   27    27     1     0     0
SMALL
USER_CHARGES

@<TRIPOS>ATOM
      1 C1         -1.9138   -0.3974    1.2597 CT        1 <0>       -0.06881
      2 C2         -1.1952    0.9043    1.6394 CT        1 <0>       -0.11444
      3 C3         -1.9894   -0.7037   -0.2447 CT        1 <0>       -0.08493
      4 C4          0.1550    0.6746    2.3257 CT        1 <0>        0.13353
      5 C5          1.6791    0.8207    0.4938 CT        1 <0>        0.08163
      6 C6         -0.6311   -1.0061   -0.8879 CT        1 <0>        0.15426
      7 C7          1.4396    0.1986   -0.8767 CT        1 <0>        0.31906
      8 C8         -0.8093   -1.7059   -2.2320 CT        1 <0>       -0.11612
      9 O1          1.0934   -0.0043    1.4978 OS        1 <0>       -0.42072
     10 O2          0.0374    0.2327   -1.1368 OS        1 <0>       -0.46176
     11 O3          2.1343    0.9865   -1.8385 OH        1 <0>       -0.59563
     12 H1         -1.4795   -1.2541    1.7890 HC        1 <0>        0.04119
     13 H2         -2.9494   -0.3186    1.6167 HC        1 <0>        0.04119
     14 H3         -1.0853    1.5548    0.7662 HC        1 <0>        0.05340
     15 H4         -1.8291    1.4499    2.3500 HC        1 <0>        0.05340
     16 H5         -2.6463   -1.5747   -0.3630 HC        1 <0>        0.05007
     17 H6         -2.4720    0.1384   -0.7562 HC        1 <0>        0.05007
     18 H7          0.5805    1.6237    2.6734 H1        1 <0>        0.04578
     19 H8          0.0052    0.0538    3.2162 H1        1 <0>        0.04578
     20 H9          2.7545    0.8850    0.6936 H1        1 <0>        0.05287
     21 H10         1.2883    1.8457    0.5227 H1        1 <0>        0.05287
     22 H11        -0.0524   -1.6561   -0.2203 H1        1 <0>        0.05658
     23 H12         1.8351   -0.8235   -0.9195 H2        1 <0>        0.08364
     24 H13        -1.3830   -1.0718   -2.9068 HC        1 <0>        0.04380
     25 H14        -1.3394   -2.6472   -2.0923 HC        1 <0>        0.04380
     26 H15         0.1644   -1.9086   -2.6763 HC        1 <0>        0.04380
     27 H16         1.7652    1.8818   -1.7820 HO        1 <0>        0.41569
@<TRIPOS>BOND
     1    1    2 1
     2    1    3 1
     3    2    4 1
     4    3    6 1
     5    4    9 1
     6    5    7 1
     7    5    9 1
     8    6    8 1
     9    6   10 1
    10    7   10 1
    11    7   11 1
    12    1   12 1
    13    1   13 1
    14    2   14 1
    15    2   15 1
    16    3   16 1
    17    3   17 1
    18    4   18 1
    19    4   19 1
    20    5   20 1
    21    5   21 1
    22    6   22 1
    23    7   23 1
    24    8   24 1
    25    8   25 1
    26    8   26 1
    27   11   27 1
@<TRIPOS>SUBSTRUCTURE
     1 <0>         1 GROUP 0 A     ****
