@<TRIPOS>MOLECULE
AlkEthOH_c390
   36    35     1     0     0
SMALL
USER_CHARGES

@<TRIPOS>ATOM
      1 C1          2.1071    1.0712   -2.3263 CT        1 <0>       -0.08969
      2 C2          3.3366   -0.7722   -1.1750 CT        1 <0>       -0.08969
      3 C3         -0.6236   -0.9321    2.5416 CT        1 <0>       -0.08632
      4 C4         -0.6666    1.4329    1.7984 CT        1 <0>       -0.08632
      5 C5         -2.8065    0.2580    2.3873 CT        1 <0>       -0.08632
      6 C6         -0.9852   -0.5931   -2.1828 CT        1 <0>       -0.12796
      7 C7          0.9419   -0.3582   -0.5347 CT        1 <0>       -0.06079
      8 C8         -1.5193   -0.4405    0.2563 CT        1 <0>       -0.09788
      9 C9          1.9678   -0.3137   -1.6936 CT        1 <0>       -0.06158
     10 C10        -1.4338    0.1002    1.7194 CT        1 <0>       -0.04721
     11 C11        -0.5219    0.0204   -0.8492 CT        1 <0>        0.16173
     12 O1         -0.6092    1.4398   -0.9852 OH        1 <0>       -0.59533
     13 H1          2.4072    1.8120   -1.5769 HC        1 <0>        0.03468
     14 H2          2.8731    1.0813   -3.1062 HC        1 <0>        0.03468
     15 H3          1.1615    1.4039   -2.7675 HC        1 <0>        0.03468
     16 H4          3.6996   -0.1022   -0.3882 HC        1 <0>        0.03468
     17 H5          4.0790   -0.7703   -1.9802 HC        1 <0>        0.03468
     18 H6          3.2865   -1.7853   -0.7613 HC        1 <0>        0.03468
     19 H7         -1.1068   -1.9160    2.5356 HC        1 <0>        0.03484
     20 H8         -0.5261   -0.6159    3.5865 HC        1 <0>        0.03484
     21 H9          0.3858   -1.0603    2.1342 HC        1 <0>        0.03484
     22 H10        -1.1581    2.2356    1.2461 HC        1 <0>        0.03484
     23 H11        -0.5856    1.7770    2.8365 HC        1 <0>        0.03484
     24 H12         0.3519    1.3281    1.4083 HC        1 <0>        0.03484
     25 H13        -3.4267    0.9812    1.8447 HC        1 <0>        0.03484
     26 H14        -3.3627   -0.6838    2.4065 HC        1 <0>        0.03484
     27 H15        -2.7067    0.6201    3.4164 HC        1 <0>        0.03484
     28 H16        -2.0249   -0.3192   -2.3979 HC        1 <0>        0.04238
     29 H17        -0.9162   -1.6856   -2.1673 HC        1 <0>        0.04238
     30 H18        -0.4035   -0.2128   -3.0286 HC        1 <0>        0.04238
     31 H19         0.9525   -1.3751   -0.1208 HC        1 <0>        0.04986
     32 H20         1.3205    0.3178    0.2401 HC        1 <0>        0.04986
     33 H21        -1.4994   -1.5388    0.3010 HC        1 <0>        0.04100
     34 H22        -2.5233   -0.1793   -0.1114 HC        1 <0>        0.04100
     35 H23         1.6675   -1.0240   -2.4725 HC        1 <0>        0.04123
     36 H24        -1.5384    1.6391   -1.1738 HO        1 <0>        0.39563
@<TRIPOS>BOND
     1    1    9 1
     2    2    9 1
     3    3   10 1
     4    4   10 1
     5    5   10 1
     6    6   11 1
     7    7    9 1
     8    7   11 1
     9    8   10 1
    10    8   11 1
    11   11   12 1
    12    1   13 1
    13    1   14 1
    14    1   15 1
    15    2   16 1
    16    2   17 1
    17    2   18 1
    18    3   19 1
    19    3   20 1
    20    3   21 1
    21    4   22 1
    22    4   23 1
    23    4   24 1
    24    5   25 1
    25    5   26 1
    26    5   27 1
    27    6   28 1
    28    6   29 1
    29    6   30 1
    30    7   31 1
    31    7   32 1
    32    8   33 1
    33    8   34 1
    34    9   35 1
    35   12   36 1
@<TRIPOS>SUBSTRUCTURE
     1 <0>         1 GROUP 0 A     ****
