@<TRIPOS>MOLECULE
AlkEthOH_r670
   15    15     1     0     0
SMALL
USER_CHARGES

@<TRIPOS>ATOM
      1 C1         -0.2581    0.7347   -0.9524 CT        1 <0>        0.12468
      2 C2         -0.8778   -1.3683   -0.4023 CT        1 <0>        0.33751
      3 C3          0.3099    0.3832    0.4066 CT        1 <0>        0.31774
      4 C4          0.2041    1.5205    1.4082 CT        1 <0>       -0.11064
      5 O1         -0.5544   -0.5427   -1.5237 OS        1 <0>       -0.44520
      6 O2         -0.4967   -0.7230    0.8158 OS        1 <0>       -0.47311
      7 O3          1.6731   -0.0043    0.2479 OH        1 <0>       -0.61056
      8 H1         -1.1997    1.2906   -0.8828 H1        1 <0>        0.07279
      9 H2          0.4411    1.2706   -1.6002 H1        1 <0>        0.07279
     10 H3         -1.9554   -1.5565   -0.3853 H2        1 <0>        0.05853
     11 H4         -0.3482   -2.3213   -0.4932 H2        1 <0>        0.05853
     12 H5          0.6258    1.2179    2.3684 HC        1 <0>        0.05803
     13 H6         -0.8415    1.7965    1.5563 HC        1 <0>        0.05803
     14 H7          0.7491    2.3941    1.0459 HC        1 <0>        0.05803
     15 H8          2.0026   -0.2211    1.1335 HO        1 <0>        0.42285
@<TRIPOS>BOND
     1    1    3 1
     2    1    5 1
     3    2    5 1
     4    2    6 1
     5    3    4 1
     6    3    6 1
     7    3    7 1
     8    1    8 1
     9    1    9 1
    10    2   10 1
    11    2   11 1
    12    4   12 1
    13    4   13 1
    14    4   14 1
    15    7   15 1
@<TRIPOS>SUBSTRUCTURE
     1 <0>         1 GROUP 0 A     ****
