@<TRIPOS>MOLECULE
AlkEthOH_r563
   24    24     1     0     0
SMALL
USER_CHARGES

@<TRIPOS>ATOM
      1 C1          1.8775   -0.7512    1.1256 CT        1 <0>       -0.12650
      2 C2         -0.6247    1.2808   -0.3107 CT        1 <0>       -0.16238
      3 C3          1.1459    0.3319    1.9157 CT        1 <0>        0.13019
      4 C4          1.5461   -0.7539   -0.3655 CT        1 <0>        0.14207
      5 C5         -0.9808    1.1409    1.1712 CT        1 <0>        0.14113
      6 C6         -0.6327   -0.0243   -1.1346 CT        1 <0>        0.35624
      7 C7         -2.0544   -0.5856   -1.2386 CT        1 <0>       -0.11643
      8 O1         -0.2608    0.1172    1.8493 OS        1 <0>       -0.40627
      9 O2          0.1686   -1.0603   -0.5577 OS        1 <0>       -0.39690
     10 O3         -0.1847    0.3046   -2.4546 OH        1 <0>       -0.62939
     11 H1          2.9580   -0.6286    1.2575 HC        1 <0>        0.05833
     12 H2          1.5952   -1.7269    1.5405 HC        1 <0>        0.05833
     13 H3         -1.3033    2.0098   -0.7733 HC        1 <0>        0.05608
     14 H4          0.3653    1.7456   -0.3914 HC        1 <0>        0.05608
     15 H5          1.4326    0.2518    2.9699 H1        1 <0>        0.03789
     16 H6          1.4345    1.3347    1.5810 H1        1 <0>        0.03789
     17 H7          1.8468    0.1843   -0.8434 H1        1 <0>        0.04970
     18 H8          2.1189   -1.5533   -0.8481 H1        1 <0>        0.04970
     19 H9         -0.8270    2.0946    1.6901 H1        1 <0>        0.04583
     20 H10        -2.0448    0.9018    1.2707 H1        1 <0>        0.04583
     21 H11        -2.0421   -1.5035   -1.8212 HC        1 <0>        0.05478
     22 H12        -2.6986    0.1419   -1.7261 HC        1 <0>        0.05478
     23 H13        -2.4369   -0.7958   -0.2428 HC        1 <0>        0.05478
     24 H14        -0.8131    0.9558   -2.7976 HO        1 <0>        0.40824
@<TRIPOS>BOND
     1    1    3 1
     2    1    4 1
     3    2    5 1
     4    2    6 1
     5    3    8 1
     6    4    9 1
     7    5    8 1
     8    6    7 1
     9    6    9 1
    10    6   10 1
    11    1   11 1
    12    1   12 1
    13    2   13 1
    14    2   14 1
    15    3   15 1
    16    3   16 1
    17    4   17 1
    18    4   18 1
    19    5   19 1
    20    5   20 1
    21    7   21 1
    22    7   22 1
    23    7   23 1
    24   10   24 1
@<TRIPOS>SUBSTRUCTURE
     1 <0>         1 GROUP 0 A     ****
