@<TRIPOS>MOLECULE
AlkEthOH_r911
   29    29     1     0     0
SMALL
USER_CHARGES

@<TRIPOS>ATOM
      1 C1         -1.8162   -1.3772    0.8069 CT        1 <0>       -0.06569
      2 C2         -1.0391   -1.6777   -0.4785 CT        1 <0>       -0.08349
      3 C3         -1.6009   -0.0272    1.4976 CT        1 <0>       -0.11232
      4 C4          0.4593   -1.9492   -0.3344 CT        1 <0>       -0.06576
      5 C5          1.3444    0.4665   -0.7493 CT        1 <0>       -0.11500
      6 C6         -1.8147    1.1944    0.6066 CT        1 <0>        0.13485
      7 C7          1.4029   -0.8149    0.1125 CT        1 <0>       -0.05819
      8 C8          0.4092    1.5519   -0.1987 CT        1 <0>        0.33231
      9 C9          2.8412   -1.3651    0.0913 CT        1 <0>       -0.09534
     10 O1         -0.9359    1.2191   -0.5091 OS        1 <0>       -0.40755
     11 O2          0.7497    2.7793   -0.8449 OH        1 <0>       -0.60755
     12 H1         -2.8850   -1.4554    0.5668 HC        1 <0>        0.03501
     13 H2         -1.6164   -2.1730    1.5355 HC        1 <0>        0.03501
     14 H3         -1.4751   -2.6016   -0.8857 HC        1 <0>        0.05180
     15 H4         -1.2291   -0.9342   -1.2558 HC        1 <0>        0.05180
     16 H5         -2.3068    0.0378    2.3356 HC        1 <0>        0.04348
     17 H6         -0.6091    0.0009    1.9519 HC        1 <0>        0.04348
     18 H7          0.5816   -2.7927    0.3588 HC        1 <0>        0.03565
     19 H8          0.8094   -2.3185   -1.3086 HC        1 <0>        0.03565
     20 H9          2.3489    0.9059   -0.8161 HC        1 <0>        0.05709
     21 H10         1.0625    0.2132   -1.7793 HC        1 <0>        0.05709
     22 H11        -2.8363    1.1772    0.2115 H1        1 <0>        0.05149
     23 H12        -1.7106    2.1211    1.1832 H1        1 <0>        0.05149
     24 H13         1.2015   -0.5662    1.1576 HC        1 <0>        0.04581
     25 H14         0.5789    1.6893    0.8759 H2        1 <0>        0.03840
     26 H15         3.1053   -1.6329   -0.9260 HC        1 <0>        0.03477
     27 H16         2.8968   -2.2417    0.7273 HC        1 <0>        0.03477
     28 H17         3.5199   -0.6026    0.4576 HC        1 <0>        0.03477
     29 H18         1.6767    2.9556   -0.6252 HO        1 <0>        0.40617
@<TRIPOS>BOND
     1    1    2 1
     2    1    3 1
     3    2    4 1
     4    3    6 1
     5    4    7 1
     6    5    7 1
     7    5    8 1
     8    6   10 1
     9    7    9 1
    10    8   10 1
    11    8   11 1
    12    1   12 1
    13    1   13 1
    14    2   14 1
    15    2   15 1
    16    3   16 1
    17    3   17 1
    18    4   18 1
    19    4   19 1
    20    5   20 1
    21    5   21 1
    22    6   22 1
    23    6   23 1
    24    7   24 1
    25    8   25 1
    26    9   26 1
    27    9   27 1
    28    9   28 1
    29   11   29 1
@<TRIPOS>SUBSTRUCTURE
     1 <0>         1 GROUP 0 A     ****
