@<TRIPOS>MOLECULE
AlkEthOH_r622
   30    30     1     0     0
SMALL
USER_CHARGES

@<TRIPOS>ATOM
      1 C1         -2.0194    0.1254   -1.1737 CT        1 <0>       -0.07006
      2 C2         -1.3525   -0.9273   -2.0701 CT        1 <0>       -0.10875
      3 C3         -1.2540    1.4511   -1.0681 CT        1 <0>       -0.11258
      4 C4         -0.6623   -2.0714   -1.3228 CT        1 <0>        0.13335
      5 C5          0.2314   -1.5042    0.8218 CT        1 <0>        0.10416
      6 C6          0.1283    1.3523   -0.4200 CT        1 <0>        0.32695
      7 C7          0.7992   -0.1826    1.3750 CT        1 <0>        0.14917
      8 C8          2.2893    0.0108    1.0610 CT        1 <0>       -0.10025
      9 C9          0.6266   -0.1931    2.9035 CT        1 <0>       -0.10025
     10 O1          0.4587   -1.6068   -0.5815 OS        1 <0>       -0.42865
     11 O2         -0.0108    0.9156    0.9278 OS        1 <0>       -0.40358
     12 O3          0.7656    2.6303   -0.4527 OH        1 <0>       -0.61169
     13 H1         -2.9958    0.3643   -1.6160 HC        1 <0>        0.04542
     14 H2         -2.2388   -0.2758   -0.1794 HC        1 <0>        0.04542
     15 H3         -2.1278   -1.3760   -2.7038 HC        1 <0>        0.04715
     16 H4         -0.6359   -0.4438   -2.7448 HC        1 <0>        0.04715
     17 H5         -1.1578    1.9008   -2.0646 HC        1 <0>        0.05248
     18 H6         -1.8684    2.1499   -0.4846 HC        1 <0>        0.05248
     19 H7         -1.3696   -2.6328   -0.7009 H1        1 <0>        0.04443
     20 H8         -0.2742   -2.7766   -2.0663 H1        1 <0>        0.04443
     21 H9          0.7263   -2.3619    1.2914 H1        1 <0>        0.04402
     22 H10        -0.8376   -1.5657    1.0573 H1        1 <0>        0.04402
     23 H11         0.7551    0.6714   -1.0236 H2        1 <0>        0.06526
     24 H12         2.6265    0.9562    1.4761 HC        1 <0>        0.04816
     25 H13         2.4342    0.0152   -0.0155 HC        1 <0>        0.04816
     26 H14         2.8598   -0.8024    1.5005 HC        1 <0>        0.04816
     27 H15         1.0207    0.7305    3.3148 HC        1 <0>        0.04816
     28 H16         1.1665   -1.0375    3.3191 HC        1 <0>        0.04816
     29 H17        -0.4280   -0.2794    3.1442 HC        1 <0>        0.04816
     30 H18         0.8382    2.8756   -1.3873 HO        1 <0>        0.40096
@<TRIPOS>BOND
     1    1    2 1
     2    1    3 1
     3    2    4 1
     4    3    6 1
     5    4   10 1
     6    5    7 1
     7    5   10 1
     8    6   11 1
     9    6   12 1
    10    7    8 1
    11    7    9 1
    12    7   11 1
    13    1   13 1
    14    1   14 1
    15    2   15 1
    16    2   16 1
    17    3   17 1
    18    3   18 1
    19    4   19 1
    20    4   20 1
    21    5   21 1
    22    5   22 1
    23    6   23 1
    24    8   24 1
    25    8   25 1
    26    8   26 1
    27    9   27 1
    28    9   28 1
    29    9   29 1
    30   12   30 1
@<TRIPOS>SUBSTRUCTURE
     1 <0>         1 GROUP 0 A     ****
