@<TRIPOS>MOLECULE
AlkEthOH_c265
   30    29     1     0     0
SMALL
USER_CHARGES

@<TRIPOS>ATOM
      1 C1         -1.4269   -1.6666   -1.1793 CT        1 <0>       -0.08610
      2 C2          0.3642   -2.7847    0.1334 CT        1 <0>       -0.08610
      3 C3         -1.1038    1.7525    0.0343 CT        1 <0>       -0.08857
      4 C4         -0.1047    0.7519    2.0679 CT        1 <0>       -0.08857
      5 C5          1.3058    2.1539    0.5898 CT        1 <0>       -0.08857
      6 C6          0.8072    0.0855   -1.7313 CT        1 <0>       -0.08576
      7 C7         -0.3987   -1.4585   -0.0650 CT        1 <0>       -0.09124
      8 C8          0.1838    1.0924    0.5781 CT        1 <0>       -0.07527
      9 C9          0.5654   -0.2234   -0.2401 CT        1 <0>        0.17013
     10 O1          1.8525   -0.6668    0.2493 OH        1 <0>       -0.60358
     11 H1         -0.9461   -1.8138   -2.1481 HC        1 <0>        0.03589
     12 H2         -2.0855   -2.5160   -0.9778 HC        1 <0>        0.03589
     13 H3         -2.0622   -0.7802   -1.2907 HC        1 <0>        0.03589
     14 H4          0.9659   -3.0437   -0.7428 HC        1 <0>        0.03589
     15 H5         -0.3155   -3.6158    0.3461 HC        1 <0>        0.03589
     16 H6          1.0531   -2.7034    0.9821 HC        1 <0>        0.03589
     17 H7         -0.9896    2.0283   -1.0211 HC        1 <0>        0.03678
     18 H8         -1.3502    2.6679    0.5822 HC        1 <0>        0.03678
     19 H9         -1.9650    1.0807    0.0898 HC        1 <0>        0.03678
     20 H10         0.7545    0.2749    2.5516 HC        1 <0>        0.03678
     21 H11        -0.3694    1.6415    2.6474 HC        1 <0>        0.03678
     22 H12        -0.9451    0.0524    2.1550 HC        1 <0>        0.03678
     23 H13         2.2476    1.7422    0.9675 HC        1 <0>        0.03678
     24 H14         1.5002    2.5807   -0.3938 HC        1 <0>        0.03678
     25 H15         1.0430    2.9906    1.2486 HC        1 <0>        0.03678
     26 H16         1.4762    0.9425   -1.8601 HC        1 <0>        0.04489
     27 H17        -0.1204    0.2942   -2.2708 HC        1 <0>        0.04489
     28 H18         1.3170   -0.7433   -2.2346 HC        1 <0>        0.04489
     29 H19        -0.9535   -1.3183    0.8723 HC        1 <0>        0.04535
     30 H20         1.7159   -0.8639    1.1829 HO        1 <0>        0.39725
@<TRIPOS>BOND
     1    1    7 1
     2    2    7 1
     3    3    8 1
     4    4    8 1
     5    5    8 1
     6    6    9 1
     7    7    9 1
     8    8    9 1
     9    9   10 1
    10    1   11 1
    11    1   12 1
    12    1   13 1
    13    2   14 1
    14    2   15 1
    15    2   16 1
    16    3   17 1
    17    3   18 1
    18    3   19 1
    19    4   20 1
    20    4   21 1
    21    4   22 1
    22    5   23 1
    23    5   24 1
    24    5   25 1
    25    6   26 1
    26    6   27 1
    27    6   28 1
    28    7   29 1
    29   10   30 1
@<TRIPOS>SUBSTRUCTURE
     1 <0>         1 GROUP 0 A     ****
