@<TRIPOS>MOLECULE
AlkEthOH_r14
   14    14     1     0     0
SMALL
USER_CHARGES

@<TRIPOS>ATOM
      1 C1          0.1266    0.8398   -1.2281 CT        1 <0>       -0.12332
      2 C2          1.3733    0.3296   -0.4844 CT        1 <0>       -0.12326
      3 C3         -0.7122   -0.1264   -0.3642 CT        1 <0>        0.12147
      4 C4          0.4408   -0.0852    0.6740 CT        1 <0>        0.12147
      5 O1         -1.9824    0.3746    0.0858 OH        1 <0>       -0.58451
      6 O2          0.7539   -1.3324    1.3168 OH        1 <0>       -0.58451
      7 H1         -0.0926    1.8996   -1.0547 HC        1 <0>        0.05837
      8 H2          0.1136    0.6455   -2.3038 HC        1 <0>        0.05837
      9 H3          1.8730   -0.5113   -0.9788 HC        1 <0>        0.05837
     10 H4          2.1177    1.0927   -0.2424 HC        1 <0>        0.05837
     11 H5         -0.8346   -1.1131   -0.8295 H1        1 <0>        0.06539
     12 H6          0.3165    0.7084    1.4221 H1        1 <0>        0.06539
     13 H7         -2.4841    0.5783   -0.7145 HO        1 <0>        0.40420
     14 H8          1.6477   -1.2302    1.6694 HO        1 <0>        0.40420
@<TRIPOS>BOND
     1    1    2 1
     2    1    3 1
     3    2    4 1
     4    3    4 1
     5    3    5 1
     6    4    6 1
     7    1    7 1
     8    1    8 1
     9    2    9 1
    10    2   10 1
    11    3   11 1
    12    4   12 1
    13    5   13 1
    14    6   14 1
@<TRIPOS>SUBSTRUCTURE
     1 <0>         1 GROUP 0 A     ****
