@<TRIPOS>MOLECULE
AlkEthOH_r258
   18    18     1     0     0
SMALL
USER_CHARGES

@<TRIPOS>ATOM
      1 C1          0.0303    0.8441   -0.7915 CT        1 <0>       -0.09353
      2 C2         -1.0184   -0.1036   -0.1886 CT        1 <0>        0.32453
      3 C3          1.0109    0.1701    0.1808 CT        1 <0>        0.32453
      4 C4         -2.0869    0.5614    0.6627 CT        1 <0>       -0.11653
      5 C5          2.1420   -0.6064   -0.4723 CT        1 <0>       -0.11653
      6 O1         -0.0191   -0.7360    0.6504 OS        1 <0>       -0.47971
      7 O2         -1.6356   -1.0080   -1.1255 OH        1 <0>       -0.59335
      8 O3          1.5334    1.0281    1.2139 OH        1 <0>       -0.59335
      9 H1          0.2426    0.7072   -1.8559 HC        1 <0>        0.08263
     10 H2         -0.1480    1.9067   -0.5996 HC        1 <0>        0.08263
     11 H3         -2.7833   -0.1867    1.0458 HC        1 <0>        0.05687
     12 H4         -2.6446    1.2873    0.0684 HC        1 <0>        0.05687
     13 H5         -1.6281    1.0783    1.5075 HC        1 <0>        0.05687
     14 H6          2.7852   -1.0486    0.2906 HC        1 <0>        0.05687
     15 H7          2.7435    0.0571   -1.0962 HC        1 <0>        0.05687
     16 H8          1.7390   -1.4054   -1.0971 HC        1 <0>        0.05687
     17 H9         -2.2611   -1.5312   -0.6089 HO        1 <0>        0.41873
     18 H10         2.1251    0.4739    1.7381 HO        1 <0>        0.41873
@<TRIPOS>BOND
     1    1    2 1
     2    1    3 1
     3    2    4 1
     4    2    6 1
     5    2    7 1
     6    3    5 1
     7    3    6 1
     8    3    8 1
     9    1    9 1
    10    1   10 1
    11    4   11 1
    12    4   12 1
    13    4   13 1
    14    5   14 1
    15    5   15 1
    16    5   16 1
    17    7   17 1
    18    8   18 1
@<TRIPOS>SUBSTRUCTURE
     1 <0>         1 GROUP 0 A     ****
