@<TRIPOS>MOLECULE
AlkEthOH_c1131
   24    23     1     0     0
SMALL
USER_CHARGES

@<TRIPOS>ATOM
      1 C1          0.3230    0.7569    0.6275 CT        1 <0>       -0.09178
      2 C2          0.0063    5.8959   -4.9177 CT        1 <0>       -0.13126
      3 C3         -0.1828    2.1324    0.2225 CT        1 <0>       -0.07931
      4 C4          0.2663    2.5003   -1.1914 CT        1 <0>       -0.07764
      5 C5         -0.2728    3.8703   -1.6078 CT        1 <0>       -0.07720
      6 C6          0.1447    4.2199   -3.0405 CT        1 <0>       -0.07100
      7 C7         -0.4087    5.5760   -3.4879 CT        1 <0>        0.13955
      8 O1          0.0923    6.5934   -2.6253 OH        1 <0>       -0.60033
      9 H1         -0.0309   -0.0115   -0.0672 HC        1 <0>        0.03210
     10 H2         -0.0183    0.4942    1.6339 HC        1 <0>        0.03210
     11 H3          1.4173    0.7396    0.6247 HC        1 <0>        0.03210
     12 H4          1.0980    5.8992   -5.0082 HC        1 <0>        0.04218
     13 H5         -0.3643    5.1347   -5.6132 HC        1 <0>        0.04218
     14 H6         -0.3709    6.8737   -5.2324 HC        1 <0>        0.04218
     15 H7          0.1885    2.8765    0.9367 HC        1 <0>        0.03836
     16 H8         -1.2775    2.1443    0.2808 HC        1 <0>        0.03836
     17 H9          1.3620    2.5066   -1.2389 HC        1 <0>        0.03715
     18 H10        -0.0834    1.7376   -1.8979 HC        1 <0>        0.03715
     19 H11         0.0985    4.6334   -0.9134 HC        1 <0>        0.04767
     20 H12        -1.3672    3.8711   -1.5350 HC        1 <0>        0.04767
     21 H13         1.2410    4.2360   -3.0906 HC        1 <0>        0.04643
     22 H14        -0.2061    3.4365   -3.7233 HC        1 <0>        0.04643
     23 H15        -1.5021    5.5764   -3.4132 H1        1 <0>        0.02925
     24 H16        -0.2993    7.4283   -2.9256 HO        1 <0>        0.39766
@<TRIPOS>BOND
     1    1    3 1
     2    2    7 1
     3    3    4 1
     4    4    5 1
     5    5    6 1
     6    6    7 1
     7    7    8 1
     8    1    9 1
     9    1   10 1
    10    1   11 1
    11    2   12 1
    12    2   13 1
    13    2   14 1
    14    3   15 1
    15    3   16 1
    16    4   17 1
    17    4   18 1
    18    5   19 1
    19    5   20 1
    20    6   21 1
    21    6   22 1
    22    7   23 1
    23    8   24 1
@<TRIPOS>SUBSTRUCTURE
     1 <0>         1 GROUP 0 A     ****
