@<TRIPOS>MOLECULE
AlkEthOH_r417
   30    30     1     0     0
SMALL
USER_CHARGES

@<TRIPOS>ATOM
      1 C1          0.5188   -1.9883    0.9612 CT        1 <0>       -0.07153
      2 C2          1.1007   -2.2844   -0.4242 CT        1 <0>       -0.10248
      3 C3          0.8017   -0.5696    1.4789 CT        1 <0>       -0.06254
      4 C4         -1.0620    0.5459    0.0248 CT        1 <0>       -0.15111
      5 C5          0.4897   -1.4618   -1.5501 CT        1 <0>        0.13986
      6 C6         -0.3920    0.4037    1.4102 CT        1 <0>        0.16403
      7 C7         -0.2156    0.8277   -1.2361 CT        1 <0>        0.35822
      8 C8          0.0108    1.7539    2.0170 CT        1 <0>       -0.12765
      9 C9          0.4118    2.2224   -1.2200 CT        1 <0>       -0.11491
     10 O1          0.8599   -0.0968   -1.4020 OS        1 <0>       -0.41109
     11 O2         -1.4033   -0.1284    2.2912 OH        1 <0>       -0.60250
     12 O3         -1.1204    0.7758   -2.3508 OH        1 <0>       -0.63003
     13 H1         -0.5527   -2.2162    0.9748 HC        1 <0>        0.04702
     14 H2          0.9855   -2.6972    1.6579 HC        1 <0>        0.04702
     15 H3          2.1842   -2.1148   -0.3947 HC        1 <0>        0.04738
     16 H4          0.9470   -3.3476   -0.6438 HC        1 <0>        0.04738
     17 H5          1.0742   -0.6766    2.5389 HC        1 <0>        0.05686
     18 H6          1.6848   -0.1443    0.9883 HC        1 <0>        0.05686
     19 H7         -1.6505   -0.3660   -0.1523 HC        1 <0>        0.05622
     20 H8         -1.8479    1.3137    0.0913 HC        1 <0>        0.05622
     21 H9          0.9115   -1.8021   -2.5022 H1        1 <0>        0.05140
     22 H10        -0.5928   -1.6146   -1.6104 H1        1 <0>        0.05140
     23 H11        -0.8312    2.4388    1.9680 HC        1 <0>        0.04384
     24 H12         0.8463    2.1670    1.4588 HC        1 <0>        0.04384
     25 H13         0.3025    1.6124    3.0540 HC        1 <0>        0.04384
     26 H14         0.9958    2.3726   -2.1256 HC        1 <0>        0.05353
     27 H15         1.0622    2.3222   -0.3535 HC        1 <0>        0.05353
     28 H16        -0.3712    2.9763   -1.1693 HC        1 <0>        0.05353
     29 H17        -2.1428    0.4891    2.2385 HO        1 <0>        0.39419
     30 H18        -1.7821    1.4610   -2.1869 HO        1 <0>        0.40767
@<TRIPOS>BOND
     1    1    2 1
     2    1    3 1
     3    2    5 1
     4    3    6 1
     5    4    6 1
     6    4    7 1
     7    5   10 1
     8    6    8 1
     9    6   11 1
    10    7    9 1
    11    7   10 1
    12    7   12 1
    13    1   13 1
    14    1   14 1
    15    2   15 1
    16    2   16 1
    17    3   17 1
    18    3   18 1
    19    4   19 1
    20    4   20 1
    21    5   21 1
    22    5   22 1
    23    8   23 1
    24    8   24 1
    25    8   25 1
    26    9   26 1
    27    9   27 1
    28    9   28 1
    29   11   29 1
    30   12   30 1
@<TRIPOS>SUBSTRUCTURE
     1 <0>         1 GROUP 0 A     ****
