@<TRIPOS>MOLECULE
AlkEthOH_r581
   23    23     1     0     0
SMALL
USER_CHARGES

@<TRIPOS>ATOM
      1 C1         -1.6141   -0.0920   -0.3345 CT        1 <0>       -0.12382
      2 C2         -1.2078   -1.5201   -0.7264 CT        1 <0>        0.14857
      3 C3          0.4652   -1.8708    0.9545 CT        1 <0>        0.33295
      4 C4          1.0058    0.4652    1.0513 CT        1 <0>        0.55028
      5 C5         -0.5959    0.9983   -0.7302 CT        1 <0>        0.38492
      6 C6         -1.0393    2.3648   -0.1983 CT        1 <0>       -0.15027
      7 O1          0.1486   -1.8444   -0.4359 OS        1 <0>       -0.43402
      8 O2          0.3020   -0.6314    1.6411 OS        1 <0>       -0.49323
      9 O3          0.7465    0.7020   -0.3341 OS        1 <0>       -0.51803
     10 O4          2.4133    0.3680    1.2776 OH        1 <0>       -0.61827
     11 O5         -0.6243    1.0604   -2.1651 OH        1 <0>       -0.58697
     12 H1         -2.5841    0.1190   -0.8039 HC        1 <0>        0.06671
     13 H2         -1.7951   -0.0586    0.7456 HC        1 <0>        0.06671
     14 H3         -1.8714   -2.2511   -0.2501 H1        1 <0>        0.05459
     15 H4         -1.3306   -1.6393   -1.8084 H1        1 <0>        0.05459
     16 H5         -0.1586   -2.6208    1.4527 H2        1 <0>        0.06921
     17 H6          1.5058   -2.1967    1.0553 H2        1 <0>        0.06921
     18 H7          0.6777    1.3608    1.6082 H3        1 <0>        0.10516
     19 H8         -0.3126    3.1210   -0.4850 HC        1 <0>        0.05290
     20 H9         -1.1119    2.3279    0.8859 HC        1 <0>        0.05290
     21 H10        -2.0099    2.6211   -0.6159 HC        1 <0>        0.05290
     22 H11         2.8102    1.1408    0.8503 HO        1 <0>        0.44084
     23 H12         0.0132    1.7431   -2.4134 HO        1 <0>        0.42217
@<TRIPOS>BOND
     1    1    2 1
     2    1    5 1
     3    2    7 1
     4    3    7 1
     5    3    8 1
     6    4    8 1
     7    4    9 1
     8    4   10 1
     9    5    6 1
    10    5    9 1
    11    5   11 1
    12    1   12 1
    13    1   13 1
    14    2   14 1
    15    2   15 1
    16    3   16 1
    17    3   17 1
    18    4   18 1
    19    6   19 1
    20    6   20 1
    21    6   21 1
    22   10   22 1
    23   11   23 1
@<TRIPOS>SUBSTRUCTURE
     1 <0>         1 GROUP 0 A     ****
