@<TRIPOS>MOLECULE
AlkEthOH_r762
   21    21     1     0     0
SMALL
USER_CHARGES

@<TRIPOS>ATOM
      1 C1         -0.1843   -1.8824   -1.0573 CT        1 <0>        0.09426
      2 C2          0.4039   -1.9054    0.3434 CT        1 <0>        0.09752
      3 C3         -0.9057    0.3670   -1.2981 CT        1 <0>        0.10071
      4 C4         -0.4033    1.1740   -0.1023 CT        1 <0>        0.09442
      5 C5          0.4010    0.3929    0.9443 CT        1 <0>        0.14739
      6 C6          0.4080    1.1371    2.2794 CT        1 <0>       -0.09566
      7 O1          0.0270   -0.6312   -1.7089 OS        1 <0>       -0.40437
      8 O2         -0.1596   -0.8987    1.1820 OS        1 <0>       -0.41674
      9 O3          0.4130    2.2467   -0.5824 OH        1 <0>       -0.59598
     10 H1          0.3109   -2.6493   -1.6622 H1        1 <0>        0.05424
     11 H2         -1.2531   -2.1262   -1.0418 H1        1 <0>        0.05424
     12 H3          0.1815   -2.8729    0.8057 H1        1 <0>        0.05636
     13 H4          1.4954   -1.8060    0.3162 H1        1 <0>        0.05636
     14 H5         -1.8785   -0.0866   -1.0734 H1        1 <0>        0.05217
     15 H6         -1.0557    1.0304   -2.1574 H1        1 <0>        0.05217
     16 H7         -1.2868    1.6420    0.3665 H1        1 <0>        0.04048
     17 H8          1.4505    0.3101    0.6268 H1        1 <0>        0.06881
     18 H9         -0.6115    1.2483    2.6429 HC        1 <0>        0.04753
     19 H10         0.8510    2.1221    2.1481 HC        1 <0>        0.04753
     20 H11         0.9895    0.5768    3.0087 HC        1 <0>        0.04753
     21 H12        -0.1542    2.7810   -1.1565 HO        1 <0>        0.40103
@<TRIPOS>BOND
     1    1    2 1
     2    1    7 1
     3    2    8 1
     4    3    4 1
     5    3    7 1
     6    4    5 1
     7    4    9 1
     8    5    6 1
     9    5    8 1
    10    1   10 1
    11    1   11 1
    12    2   12 1
    13    2   13 1
    14    3   14 1
    15    3   15 1
    16    4   16 1
    17    5   17 1
    18    6   18 1
    19    6   19 1
    20    6   20 1
    21    9   21 1
@<TRIPOS>SUBSTRUCTURE
     1 <0>         1 GROUP 0 A     ****
