@<TRIPOS>MOLECULE
AlkEthOH_r447
   29    29     1     0     0
SMALL
USER_CHARGES

@<TRIPOS>ATOM
      1 C1          1.0489   -0.4025    1.7348 CT        1 <0>       -0.07197
      2 C2          1.7755    0.9456    1.6524 CT        1 <0>       -0.09939
      3 C3          0.9443   -1.1438    0.3937 CT        1 <0>       -0.07427
      4 C4          1.0772    2.0000    0.8015 CT        1 <0>        0.12740
      5 C5         -0.2849    1.3949   -1.0644 CT        1 <0>        0.10229
      6 C6         -1.0994    0.2995   -0.3638 CT        1 <0>        0.11712
      7 C7         -0.4474   -1.1162   -0.3042 CT        1 <0>       -0.03326
      8 C8         -0.2728   -1.6993   -1.7254 CT        1 <0>       -0.08874
      9 C9         -1.4041   -2.0661    0.4601 CT        1 <0>       -0.08874
     10 O1          1.0277    1.5725   -0.5544 OS        1 <0>       -0.40923
     11 O2         -2.3651    0.2155   -1.0303 OH        1 <0>       -0.59557
     12 H1          1.6314   -1.0337    2.4190 HC        1 <0>        0.03836
     13 H2          0.0711   -0.2750    2.2096 HC        1 <0>        0.03836
     14 H3          1.8973    1.3389    2.6686 HC        1 <0>        0.04779
     15 H4          2.7832    0.7724    1.2540 HC        1 <0>        0.04779
     16 H5          1.7235   -0.7882   -0.2921 HC        1 <0>        0.05099
     17 H6          1.2085   -2.1952    0.5779 HC        1 <0>        0.05099
     18 H7          0.0901    2.2510    1.2053 H1        1 <0>        0.03936
     19 H8          1.6719    2.9198    0.8247 H1        1 <0>        0.03936
     20 H9         -0.1948    1.1687   -2.1329 H1        1 <0>        0.04924
     21 H10        -0.8221    2.3514   -1.0205 H1        1 <0>        0.04924
     22 H11        -1.3208    0.6228    0.6605 H1        1 <0>        0.03102
     23 H12        -1.2312   -1.6891   -2.2288 HC        1 <0>        0.03925
     24 H13         0.0931   -2.7151   -1.6450 HC        1 <0>        0.03925
     25 H14         0.4385   -1.0906   -2.2691 HC        1 <0>        0.03925
     26 H15        -2.3705   -2.0472   -0.0243 HC        1 <0>        0.03925
     27 H16        -1.4904   -1.7220    1.4814 HC        1 <0>        0.03925
     28 H17        -0.9923   -3.0656    0.4351 HC        1 <0>        0.03925
     29 H18        -2.7750    1.0874   -0.9395 HO        1 <0>        0.39636
@<TRIPOS>BOND
     1    1    2 1
     2    1    3 1
     3    2    4 1
     4    3    7 1
     5    4   10 1
     6    5    6 1
     7    5   10 1
     8    6    7 1
     9    6   11 1
    10    7    8 1
    11    7    9 1
    12    1   12 1
    13    1   13 1
    14    2   14 1
    15    2   15 1
    16    3   16 1
    17    3   17 1
    18    4   18 1
    19    4   19 1
    20    5   20 1
    21    5   21 1
    22    6   22 1
    23    8   23 1
    24    8   24 1
    25    8   25 1
    26    9   26 1
    27    9   27 1
    28    9   28 1
    29   11   29 1
@<TRIPOS>SUBSTRUCTURE
     1 <0>         1 GROUP 0 A     ****
