@<TRIPOS>MOLECULE
AlkEthOH_c1190
   22    21     1     0     0
SMALL
USER_CHARGES

@<TRIPOS>ATOM
      1 C1         -2.1587   -0.6046    4.7180 CT        1 <0>       -0.09637
      2 C2         -0.4921    0.1122    0.9716 CT        1 <0>       -0.09735
      3 C3          1.6723    0.5912    2.1500 CT        1 <0>       -0.09735
      4 C4         -1.4585   -0.8634    3.4011 CT        1 <0>        0.12788
      5 C5          0.7921   -1.7855    2.0067 CT        1 <0>        0.10392
      6 C6          0.4298   -0.2995    2.1208 CT        1 <0>        0.15478
      7 O1          1.8456   -1.9690    1.0676 OH        1 <0>       -0.59537
      8 O2         -0.2710   -0.0901    3.3496 OS        1 <0>       -0.42261
      9 H1         -1.5216   -0.8870    5.5608 HC        1 <0>        0.04418
     10 H2         -2.4227    0.4537    4.8134 HC        1 <0>        0.04418
     11 H3         -3.0934   -1.1723    4.7761 HC        1 <0>        0.04418
     12 H4         -1.3862   -0.5210    0.9424 HC        1 <0>        0.04749
     13 H5         -0.8084    1.1564    1.0628 HC        1 <0>        0.04749
     14 H6          0.0077   -0.0148    0.0045 HC        1 <0>        0.04749
     15 H7          2.3454    0.3108    2.9678 HC        1 <0>        0.04749
     16 H8          1.3962    1.6368    2.3298 HC        1 <0>        0.04749
     17 H9          2.2270    0.5381    1.2076 HC        1 <0>        0.04749
     18 H10        -2.1010   -0.5789    2.5624 H1        1 <0>        0.02317
     19 H11        -1.1947   -1.9211    3.3077 H1        1 <0>        0.02317
     20 H12         1.1389   -2.1760    2.9697 H1        1 <0>        0.02907
     21 H13        -0.0689   -2.3748    1.6736 H1        1 <0>        0.02907
     22 H14         2.0297   -2.9213    1.0386 HO        1 <0>        0.40051
@<TRIPOS>BOND
     1    1    4 1
     2    2    6 1
     3    3    6 1
     4    4    8 1
     5    5    6 1
     6    5    7 1
     7    6    8 1
     8    1    9 1
     9    1   10 1
    10    1   11 1
    11    2   12 1
    12    2   13 1
    13    2   14 1
    14    3   15 1
    15    3   16 1
    16    3   17 1
    17    4   18 1
    18    4   19 1
    19    5   20 1
    20    5   21 1
    21    7   22 1
@<TRIPOS>SUBSTRUCTURE
     1 <0>         1 GROUP 0 A     ****
