@<TRIPOS>MOLECULE
AlkEthOH_r1074
   30    30     1     0     0
SMALL
USER_CHARGES

@<TRIPOS>ATOM
      1 C1         -0.6258   -0.2512    2.1538 CT        1 <0>       -0.05598
      2 C2          0.7743    0.3665    2.0879 CT        1 <0>       -0.11543
      3 C3         -1.3977   -0.4211    0.8377 CT        1 <0>       -0.12620
      4 C4          0.8006    1.8357    1.6681 CT        1 <0>        0.13623
      5 C5          1.1091    1.6229   -0.7012 CT        1 <0>        0.10705
      6 C6          0.3745    0.5297   -1.4780 CT        1 <0>        0.13346
      7 C7         -0.7385   -1.2687   -0.2717 CT        1 <0>        0.35651
      8 C8          1.0367    0.2973   -2.8311 CT        1 <0>       -0.10140
      9 C9         -0.3899   -2.6700    0.2406 CT        1 <0>       -0.11508
     10 O1          0.2768    2.0713    0.3682 OS        1 <0>       -0.42510
     11 O2          0.4823   -0.6980   -0.7512 OS        1 <0>       -0.41996
     12 O3         -1.7024   -1.4144   -1.3231 OH        1 <0>       -0.62893
     13 H1         -0.5428   -1.2308    2.6404 HC        1 <0>        0.03511
     14 H2         -1.2415    0.3568    2.8295 HC        1 <0>        0.03511
     15 H3          1.2137    0.3028    3.0917 HC        1 <0>        0.05438
     16 H4          1.4218   -0.2333    1.4430 HC        1 <0>        0.05438
     17 H5         -2.3672   -0.8783    1.0831 HC        1 <0>        0.05814
     18 H6         -1.6651    0.5658    0.4450 HC        1 <0>        0.05814
     19 H7          0.1907    2.4183    2.3674 H1        1 <0>        0.04305
     20 H8          1.8195    2.2359    1.7322 H1        1 <0>        0.04305
     21 H9          2.0837    1.2748   -0.3388 H1        1 <0>        0.04965
     22 H10         1.2771    2.4923   -1.3457 H1        1 <0>        0.04965
     23 H11        -0.6720    0.8158   -1.6337 H1        1 <0>        0.07710
     24 H12         2.0791    0.0118   -2.6911 HC        1 <0>        0.04431
     25 H13         0.9961    1.2089   -3.4268 HC        1 <0>        0.04431
     26 H14         0.5200   -0.4992   -3.3663 HC        1 <0>        0.04431
     27 H15         0.0719   -3.2452   -0.5579 HC        1 <0>        0.05164
     28 H16        -1.2956   -3.1730    0.5699 HC        1 <0>        0.05164
     29 H17         0.3025   -2.5909    1.0749 HC        1 <0>        0.05164
     30 H18        -2.4645   -1.8601   -0.9276 HO        1 <0>        0.40922
@<TRIPOS>BOND
     1    1    2 1
     2    1    3 1
     3    2    4 1
     4    3    7 1
     5    4   10 1
     6    5    6 1
     7    5   10 1
     8    6    8 1
     9    6   11 1
    10    7    9 1
    11    7   11 1
    12    7   12 1
    13    1   13 1
    14    1   14 1
    15    2   15 1
    16    2   16 1
    17    3   17 1
    18    3   18 1
    19    4   19 1
    20    4   20 1
    21    5   21 1
    22    5   22 1
    23    6   23 1
    24    8   24 1
    25    8   25 1
    26    8   26 1
    27    9   27 1
    28    9   28 1
    29    9   29 1
    30   12   30 1
@<TRIPOS>SUBSTRUCTURE
     1 <0>         1 GROUP 0 A     ****
