@<TRIPOS>MOLECULE
AlkEthOH_c560
   26    25     1     0     0
SMALL
USER_CHARGES

@<TRIPOS>ATOM
      1 C1         -2.6808    2.8200    0.1899 CT        1 <0>       -0.10641
      2 C2         -3.2404    0.7568   -1.1449 CT        1 <0>       -0.10641
      3 C3          1.0463   -1.0493    2.2656 CT        1 <0>       -0.12449
      4 C4          1.0857    0.7447   -1.7592 CT        1 <0>       -0.11025
      5 C5         -2.2029    1.4538   -0.2779 CT        1 <0>        0.14067
      6 C6          0.5896   -1.0420    0.8162 CT        1 <0>        0.34089
      7 C7         -0.1323    0.4749   -0.8853 CT        1 <0>        0.33815
      8 O1         -0.5581   -1.8796    0.7250 OH        1 <0>       -0.63727
      9 O2         -0.9999    1.6077   -1.0198 OS        1 <0>       -0.41720
     10 O3          0.2973    0.3107    0.4679 OS        1 <0>       -0.44331
     11 H1         -2.9181    3.4696   -0.6581 HC        1 <0>        0.04107
     12 H2         -3.5753    2.7178    0.8136 HC        1 <0>        0.04107
     13 H3         -1.9220    3.3131    0.8076 HC        1 <0>        0.04107
     14 H4         -3.4911    1.3573   -2.0247 HC        1 <0>        0.04107
     15 H5         -4.1563    0.5759   -0.5722 HC        1 <0>        0.04107
     16 H6         -2.8805   -0.2222   -1.4799 HC        1 <0>        0.04107
     17 H7          0.2640   -0.6471    2.9197 HC        1 <0>        0.05459
     18 H8          1.9363   -0.4260    2.3984 HC        1 <0>        0.05459
     19 H9          1.2641   -2.0674    2.6035 HC        1 <0>        0.05459
     20 H10         1.6353    1.6281   -1.4217 HC        1 <0>        0.05051
     21 H11         0.7811    0.9262   -2.7963 HC        1 <0>        0.05051
     22 H12         1.7616   -0.1165   -1.7628 HC        1 <0>        0.05051
     23 H13        -1.9743    0.8292    0.5917 H1        1 <0>        0.06540
     24 H14         1.3892   -1.4483    0.1862 H2        1 <0>        0.02840
     25 H15        -0.6567   -0.4158   -1.2532 H2        1 <0>        0.05761
     26 H16        -0.2904   -2.7699    1.0087 HO        1 <0>        0.41250
@<TRIPOS>BOND
     1    1    5 1
     2    2    5 1
     3    3    6 1
     4    4    7 1
     5    5    9 1
     6    6    8 1
     7    6   10 1
     8    7    9 1
     9    7   10 1
    10    1   11 1
    11    1   12 1
    12    1   13 1
    13    2   14 1
    14    2   15 1
    15    2   16 1
    16    3   17 1
    17    3   18 1
    18    3   19 1
    19    4   20 1
    20    4   21 1
    21    4   22 1
    22    5   23 1
    23    6   24 1
    24    7   25 1
    25    8   26 1
@<TRIPOS>SUBSTRUCTURE
     1 <0>         1 GROUP 0 A     ****
