@<TRIPOS>MOLECULE
AlkEthOH_c873
   21    20     1     0     0
SMALL
USER_CHARGES

@<TRIPOS>ATOM
      1 C1         -2.4222    0.3053    1.0822 CT        1 <0>       -0.12041
      2 C2          3.8017    1.2287   -2.2080 CT        1 <0>        0.11656
      3 C3          1.7608    0.8462   -1.1074 CT        1 <0>        0.10078
      4 C4         -1.2562   -0.5056    0.5365 CT        1 <0>        0.34415
      5 C5          0.8364   -0.2434   -0.5804 CT        1 <0>        0.33909
      6 O1         -0.7072   -1.3139    1.5730 OH        1 <0>       -0.62777
      7 O2          0.4768   -1.0748   -1.6815 OH        1 <0>       -0.60999
      8 O3          2.9186    0.2503   -1.6760 OS        1 <0>       -0.41380
      9 O4         -0.2982    0.4043   -0.0051 OS        1 <0>       -0.46023
     10 H1         -2.0857    0.9822    1.8758 HC        1 <0>        0.05229
     11 H2         -2.8690    0.9229    0.2966 HC        1 <0>        0.05229
     12 H3         -3.1888   -0.3484    1.5097 HC        1 <0>        0.05229
     13 H4          4.6782    0.7356   -2.6355 H1        1 <0>        0.03575
     14 H5          4.1074    1.9150   -1.4143 H1        1 <0>        0.03575
     15 H6          3.2831    1.7876   -2.9905 H1        1 <0>        0.03575
     16 H7          2.0704    1.5180   -0.3001 H1        1 <0>        0.04499
     17 H8          1.2631    1.4420   -1.8804 H1        1 <0>        0.04499
     18 H9         -1.6260   -1.1695   -0.2522 H2        1 <0>        0.04556
     19 H10         1.3690   -0.8493    0.1629 H2        1 <0>        0.11292
     20 H11        -1.4034   -1.9101    1.8960 HO        1 <0>        0.41241
     21 H12         0.0260   -0.5120   -2.3335 HO        1 <0>        0.40663
@<TRIPOS>BOND
     1    1    4 1
     2    2    8 1
     3    3    5 1
     4    3    8 1
     5    4    6 1
     6    4    9 1
     7    5    7 1
     8    5    9 1
     9    1   10 1
    10    1   11 1
    11    1   12 1
    12    2   13 1
    13    2   14 1
    14    2   15 1
    15    3   16 1
    16    3   17 1
    17    4   18 1
    18    5   19 1
    19    6   20 1
    20    7   21 1
@<TRIPOS>SUBSTRUCTURE
     1 <0>         1 GROUP 0 A     ****
