@<TRIPOS>MOLECULE
AlkEthOH_r152
   18    18     1     0     0
SMALL
USER_CHARGES

@<TRIPOS>ATOM
      1 C1         -0.7907    0.0318    1.1689 CT        1 <0>       -0.17787
      2 C2         -0.5086    1.4652    0.7448 CT        1 <0>        0.13438
      3 C3          1.3106    1.1423   -0.7823 CT        1 <0>        0.09402
      4 C4          1.1752   -0.3694   -0.8893 CT        1 <0>        0.09731
      5 C5         -0.9937   -0.9317   -0.0069 CT        1 <0>        0.33344
      6 O1          0.8807    1.6449    0.4792 OS        1 <0>       -0.41680
      7 O2         -0.1826   -0.7000   -1.1538 OS        1 <0>       -0.40598
      8 O3         -0.8911   -2.2831    0.4394 OH        1 <0>       -0.61747
      9 H1          0.0273   -0.3301    1.8054 HC        1 <0>        0.06551
     10 H2         -1.6921   -0.0045    1.7935 HC        1 <0>        0.06551
     11 H3         -1.1188    1.7849   -0.1077 H1        1 <0>        0.05445
     12 H4         -0.7457    2.1295    1.5825 H1        1 <0>        0.05445
     13 H5          2.3664    1.4145   -0.8796 H1        1 <0>        0.05787
     14 H6          0.7566    1.6528   -1.5783 H1        1 <0>        0.05787
     15 H7          1.7522   -0.7138   -1.7537 H1        1 <0>        0.06580
     16 H8          1.5492   -0.8930   -0.0026 H1        1 <0>        0.06580
     17 H9         -2.0378   -0.7987   -0.3666 H2        1 <0>        0.06435
     18 H10        -1.5850   -2.4056    1.1048 HO        1 <0>        0.40736
@<TRIPOS>BOND
     1    1    2 1
     2    1    5 1
     3    2    6 1
     4    3    4 1
     5    3    6 1
     6    4    7 1
     7    5    7 1
     8    5    8 1
     9    1    9 1
    10    1   10 1
    11    2   11 1
    12    2   12 1
    13    3   13 1
    14    3   14 1
    15    4   15 1
    16    4   16 1
    17    5   17 1
    18    8   18 1
@<TRIPOS>SUBSTRUCTURE
     1 <0>         1 GROUP 0 A     ****
