@<TRIPOS>MOLECULE
AlkEthOH_c72
   22    21     1     0     0
SMALL
USER_CHARGES

@<TRIPOS>ATOM
      1 C1          2.8436   -1.2687   -1.4107 CT        1 <0>       -0.13010
      2 C2          4.0514    1.2316   -0.0251 CT        1 <0>       -0.10367
      3 C3          2.4074    1.7537   -1.8363 CT        1 <0>       -0.10367
      4 C4          1.9484    1.4030    1.7891 CT        1 <0>        0.11709
      5 C5          2.1047   -0.3548   -0.4361 CT        1 <0>        0.11972
      6 C6          2.5832    1.1163   -0.4553 CT        1 <0>        0.16284
      7 O1          0.7150   -0.3967   -0.7708 OH        1 <0>       -0.58337
      8 O2          1.8020    1.8852    0.4639 OS        1 <0>       -0.40539
      9 H1          2.7736   -0.9094   -2.4407 HC        1 <0>        0.04410
     10 H2          2.4590   -2.2931   -1.3652 HC        1 <0>        0.04410
     11 H3          3.9055   -1.3261   -1.1461 HC        1 <0>        0.04410
     12 H4          4.2172    0.7852    0.9616 HC        1 <0>        0.04646
     13 H5          4.3479    2.2830    0.0670 HC        1 <0>        0.04646
     14 H6          4.7189    0.7461   -0.7445 HC        1 <0>        0.04646
     15 H7          1.3693    1.6911   -2.1791 HC        1 <0>        0.04646
     16 H8          2.6447    2.8237   -1.8031 HC        1 <0>        0.04646
     17 H9          3.0541    1.2815   -2.5828 HC        1 <0>        0.04646
     18 H10         1.3416    2.0083    2.4671 H1        1 <0>        0.03063
     19 H11         3.0002    1.4525    2.0818 H1        1 <0>        0.03063
     20 H12         1.6096    0.3650    1.8291 H1        1 <0>        0.03063
     21 H13         2.2038   -0.7562    0.5798 H1        1 <0>        0.02835
     22 H14         0.4410   -1.3208   -0.6769 HO        1 <0>        0.39525
@<TRIPOS>BOND
     1    1    5 1
     2    2    6 1
     3    3    6 1
     4    4    8 1
     5    5    6 1
     6    5    7 1
     7    6    8 1
     8    1    9 1
     9    1   10 1
    10    1   11 1
    11    2   12 1
    12    2   13 1
    13    2   14 1
    14    3   15 1
    15    3   16 1
    16    3   17 1
    17    4   18 1
    18    4   19 1
    19    4   20 1
    20    5   21 1
    21    7   22 1
@<TRIPOS>SUBSTRUCTURE
     1 <0>         1 GROUP 0 A     ****
