@<TRIPOS>MOLECULE
AlkEthOH_r999
   16    16     1     0     0
SMALL
USER_CHARGES

@<TRIPOS>ATOM
      1 C1         -0.4339   -0.6685   -0.7487 CT        1 <0>       -0.10912
      2 C2         -0.2835   -2.1306   -0.3842 CT        1 <0>        0.12535
      3 C3         -2.2943   -1.8644   -1.5305 CT        1 <0>        0.12737
      4 C4         -1.9355   -0.5384   -0.8827 CT        1 <0>       -0.09695
      5 C5         -2.3862    0.6723   -1.6772 CT        1 <0>       -0.08462
      6 O1         -1.3627   -2.8308   -1.0207 OS        1 <0>       -0.42940
      7 H1          0.0002   -0.0003    0.0002 HC        1 <0>        0.05480
      8 H2          0.0584   -0.4714   -1.7089 HC        1 <0>        0.05480
      9 H3          0.6721   -2.5492   -0.7122 H1        1 <0>        0.04636
     10 H4         -0.3792   -2.2820    0.6963 H1        1 <0>        0.04636
     11 H5         -3.3141   -2.1828   -1.2948 H1        1 <0>        0.04665
     12 H6         -2.1812   -1.8369   -2.6200 H1        1 <0>        0.04665
     13 H7         -2.3773   -0.4992    0.1218 HC        1 <0>        0.05622
     14 H8         -1.9555    0.6497   -2.6809 HC        1 <0>        0.03851
     15 H9         -2.0665    1.5920   -1.1818 HC        1 <0>        0.03851
     16 H10        -3.4750    0.6846   -1.7657 HC        1 <0>        0.03851
@<TRIPOS>BOND
     1    1    2 1
     2    1    4 1
     3    2    6 1
     4    3    4 1
     5    3    6 1
     6    4    5 1
     7    1    7 1
     8    1    8 1
     9    2    9 1
    10    2   10 1
    11    3   11 1
    12    3   12 1
    13    4   13 1
    14    5   14 1
    15    5   15 1
    16    5   16 1
@<TRIPOS>SUBSTRUCTURE
     1 <0>         1 GROUP 0 A     ****
