@<TRIPOS>MOLECULE
AlkEthOH_c1251
   23    22     1     0     0
SMALL
USER_CHARGES

@<TRIPOS>ATOM
      1 C1         -3.3593    1.8382   -0.2039 CT        1 <0>       -0.09708
      2 C2          0.3264   -1.7307    1.2420 CT        1 <0>       -0.13065
      3 C3          0.8629   -0.2793   -0.7926 CT        1 <0>       -0.10642
      4 C4         -1.9143    1.8758    0.2459 CT        1 <0>        0.13203
      5 C5          0.2579   -1.5881   -0.2723 CT        1 <0>        0.14575
      6 C6          0.2321    0.9924   -0.2221 CT        1 <0>        0.33547
      7 O1          0.9667   -2.6791   -0.8614 OH        1 <0>       -0.60467
      8 O2          0.9445    2.0987   -0.7727 OH        1 <0>       -0.62265
      9 O3         -1.1487    1.0129   -0.5838 OS        1 <0>       -0.41386
     10 H1         -3.4544    2.1753   -1.2398 HC        1 <0>        0.04504
     11 H2         -3.7622    0.8232   -0.1239 HC        1 <0>        0.04504
     12 H3         -3.9786    2.4776    0.4339 HC        1 <0>        0.04504
     13 H4          1.3591   -1.6455    1.5981 HC        1 <0>        0.04278
     14 H5         -0.0304   -2.7205    1.5475 HC        1 <0>        0.04278
     15 H6         -0.2826   -0.9766    1.7485 HC        1 <0>        0.04278
     16 H7          0.7668   -0.2695   -1.8875 HC        1 <0>        0.06948
     17 H8          1.9463   -0.2665   -0.6127 HC        1 <0>        0.06948
     18 H9         -1.8262    1.5375    1.2827 H1        1 <0>        0.03334
     19 H10        -1.5131    2.8904    0.1647 H1        1 <0>        0.03334
     20 H11        -0.7840   -1.6774   -0.5975 H1        1 <0>        0.05161
     21 H12         0.3468    1.0085    0.8682 H2        1 <0>        0.02976
     22 H13         0.5238   -3.4868   -0.5610 HO        1 <0>        0.40023
     23 H14         1.8736    2.0064   -0.5019 HO        1 <0>        0.41138
@<TRIPOS>BOND
     1    1    4 1
     2    2    5 1
     3    3    5 1
     4    3    6 1
     5    4    9 1
     6    5    7 1
     7    6    8 1
     8    6    9 1
     9    1   10 1
    10    1   11 1
    11    1   12 1
    12    2   13 1
    13    2   14 1
    14    2   15 1
    15    3   16 1
    16    3   17 1
    17    4   18 1
    18    4   19 1
    19    5   20 1
    20    6   21 1
    21    7   22 1
    22    8   23 1
@<TRIPOS>SUBSTRUCTURE
     1 <0>         1 GROUP 0 A     ****
