@<TRIPOS>MOLECULE
AlkEthOH_r293
   27    27     1     0     0
SMALL
USER_CHARGES

@<TRIPOS>ATOM
      1 C1         -1.1410    0.5288   -0.8520 CT        1 <0>       -0.07475
      2 C2          0.1981    0.1601   -1.4757 CT        1 <0>       -0.07475
      3 C3          0.1901   -0.4400    0.9115 CT        1 <0>       -0.06758
      4 C4         -0.8250    0.6905    0.6404 CT        1 <0>       -0.05833
      5 C5          0.8675   -0.7703   -0.4451 CT        1 <0>       -0.05833
      6 C6         -2.0876    0.5307    1.4925 CT        1 <0>       -0.08247
      7 C7         -0.1992    2.0653    0.9326 CT        1 <0>       -0.08247
      8 C8          2.3792   -0.5233   -0.3893 CT        1 <0>       -0.08247
      9 C9          0.6178   -2.2419   -0.8149 CT        1 <0>       -0.08247
     10 H1         -1.5619    1.4351   -1.2997 HC        1 <0>        0.04333
     11 H2         -1.8578   -0.2858   -1.0147 HC        1 <0>        0.04333
     12 H3          0.0655   -0.3121   -2.4550 HC        1 <0>        0.04333
     13 H4          0.7922    1.0676   -1.6370 HC        1 <0>        0.04333
     14 H5          0.9186   -0.1472    1.6771 HC        1 <0>        0.04421
     15 H6         -0.3241   -1.3268    1.3036 HC        1 <0>        0.04421
     16 H7         -1.8359    0.6497    2.5436 HC        1 <0>        0.03349
     17 H8         -2.5122   -0.4576    1.3338 HC        1 <0>        0.03349
     18 H9         -2.8170    1.2858    1.2092 HC        1 <0>        0.03349
     19 H10         0.0106    2.1447    1.9942 HC        1 <0>        0.03349
     20 H11        -0.8942    2.8447    0.6383 HC        1 <0>        0.03349
     21 H12         0.7228    2.1659    0.3694 HC        1 <0>        0.03349
     22 H13         2.8297   -1.1889    0.3425 HC        1 <0>        0.03349
     23 H14         2.5689    0.5081   -0.1039 HC        1 <0>        0.03349
     24 H15         2.8151   -0.7135   -1.3667 HC        1 <0>        0.03349
     25 H16         1.0951   -2.8824   -0.0802 HC        1 <0>        0.03349
     26 H17         1.0342   -2.4405   -1.7972 HC        1 <0>        0.03349
     27 H18        -0.4506   -2.4327   -0.8261 HC        1 <0>        0.03349
@<TRIPOS>BOND
     1    1    2 1
     2    1    4 1
     3    2    5 1
     4    3    4 1
     5    3    5 1
     6    4    6 1
     7    4    7 1
     8    5    8 1
     9    5    9 1
    10    1   10 1
    11    1   11 1
    12    2   12 1
    13    2   13 1
    14    3   14 1
    15    3   15 1
    16    6   16 1
    17    6   17 1
    18    6   18 1
    19    7   19 1
    20    7   20 1
    21    7   21 1
    22    8   22 1
    23    8   23 1
    24    8   24 1
    25    9   25 1
    26    9   26 1
    27    9   27 1
@<TRIPOS>SUBSTRUCTURE
     1 <0>         1 GROUP 0 A     ****
