@<TRIPOS>MOLECULE
AlkEthOH_c629
   32    31     1     0     0
SMALL
USER_CHARGES

@<TRIPOS>ATOM
      1 C1          1.8449    1.3095   -0.6476 CT        1 <0>       -0.13266
      2 C2          3.3099   -1.4008   -3.7175 CT        1 <0>       -0.10293
      3 C3          3.9924   -2.7060   -1.6948 CT        1 <0>       -0.10293
      4 C4          1.7184   -5.3404   -1.7608 CT        1 <0>       -0.13167
      5 C5         -0.1512   -3.6878   -1.8442 CT        1 <0>       -0.13167
      6 C6          2.0673   -1.0299   -1.5592 CT        1 <0>       -0.09570
      7 C7          2.6796    0.3802   -1.5208 CT        1 <0>        0.14128
      8 C8          2.8129   -2.0681   -2.4299 CT        1 <0>        0.19393
      9 C9          1.3633   -3.8527   -1.7115 CT        1 <0>        0.36024
     10 O1          3.9933    0.3480   -0.9741 OH        1 <0>       -0.60151
     11 O2          1.7174   -3.3011   -0.4430 OH        1 <0>       -0.62112
     12 O3          1.9228   -3.1204   -2.8044 OS        1 <0>       -0.44066
     13 H1          1.7551    0.9241    0.3725 HC        1 <0>        0.04120
     14 H2          2.2848    2.3122   -0.6079 HC        1 <0>        0.04120
     15 H3          0.8391    1.4247   -1.0662 HC        1 <0>        0.04120
     16 H4          2.4899   -0.9323   -4.2714 HC        1 <0>        0.04637
     17 H5          3.7980   -2.1310   -4.3732 HC        1 <0>        0.04637
     18 H6          4.0623   -0.6352   -3.4959 HC        1 <0>        0.04637
     19 H7          3.6568   -3.1892   -0.7696 HC        1 <0>        0.04637
     20 H8          4.4933   -3.4580   -2.3127 HC        1 <0>        0.04637
     21 H9          4.7275   -1.9547   -1.3873 HC        1 <0>        0.04637
     22 H10         2.7996   -5.4908   -1.6679 HC        1 <0>        0.04810
     23 H11         1.2080   -5.8976   -0.9685 HC        1 <0>        0.04810
     24 H12         1.4280   -5.7867   -2.7179 HC        1 <0>        0.04810
     25 H13        -0.4251   -2.6264   -1.8110 HC        1 <0>        0.04810
     26 H14        -0.6820   -4.1827   -1.0237 HC        1 <0>        0.04810
     27 H15        -0.5142   -4.0849   -2.7983 HC        1 <0>        0.04810
     28 H16         2.0438   -1.4103   -0.5285 HC        1 <0>        0.06632
     29 H17         1.0276   -0.9555   -1.9033 HC        1 <0>        0.06632
     30 H18         2.7375    0.8105   -2.5256 H1        1 <0>        0.03465
     31 H19         4.3263    1.2590   -0.9967 HO        1 <0>        0.39650
     32 H20         1.2240   -3.7784    0.2450 HO        1 <0>        0.41119
@<TRIPOS>BOND
     1    1    7 1
     2    2    8 1
     3    3    8 1
     4    4    9 1
     5    5    9 1
     6    6    7 1
     7    6    8 1
     8    7   10 1
     9    8   12 1
    10    9   11 1
    11    9   12 1
    12    1   13 1
    13    1   14 1
    14    1   15 1
    15    2   16 1
    16    2   17 1
    17    2   18 1
    18    3   19 1
    19    3   20 1
    20    3   21 1
    21    4   22 1
    22    4   23 1
    23    4   24 1
    24    5   25 1
    25    5   26 1
    26    5   27 1
    27    6   28 1
    28    6   29 1
    29    7   30 1
    30   10   31 1
    31   11   32 1
@<TRIPOS>SUBSTRUCTURE
     1 <0>         1 GROUP 0 A     ****
