@<TRIPOS>MOLECULE
AlkEthOH_c149
   26    25     1     0     0
SMALL
USER_CHARGES

@<TRIPOS>ATOM
      1 C1         -1.4453    0.5097   -1.5037 CT        1 <0>       -0.08883
      2 C2          1.0049    0.9696   -1.5699 CT        1 <0>       -0.08883
      3 C3          0.1806   -1.3679   -1.8230 CT        1 <0>       -0.08883
      4 C4         -1.0106   -1.1811    1.0463 CT        1 <0>       -0.14079
      5 C5          0.3403    1.3079    2.3659 CT        1 <0>        0.34308
      6 C6         -0.0655   -0.0371   -1.0797 CT        1 <0>       -0.06540
      7 C7          0.0398   -0.2079    0.4855 CT        1 <0>        0.36017
      8 O1          1.7081    1.6914    2.3676 OH        1 <0>       -0.61435
      9 O2          1.3471   -0.7222    0.7692 OH        1 <0>       -0.64662
     10 O3         -0.1687    1.0996    1.0543 OS        1 <0>       -0.44534
     11 H1         -2.2576   -0.1540   -1.1892 HC        1 <0>        0.04118
     12 H2         -1.6333    1.4915   -1.0535 HC        1 <0>        0.04118
     13 H3         -1.5135    0.6380   -2.5887 HC        1 <0>        0.04118
     14 H4          2.0159    0.6441   -1.3023 HC        1 <0>        0.04118
     15 H5          0.8480    1.9659   -1.1426 HC        1 <0>        0.04118
     16 H6          0.9753    1.0765   -2.6606 HC        1 <0>        0.04118
     17 H7          1.1486   -1.8067   -1.5621 HC        1 <0>        0.04118
     18 H8         -0.5843   -2.1092   -1.5624 HC        1 <0>        0.04118
     19 H9          0.1490   -1.2363   -2.9096 HC        1 <0>        0.04118
     20 H10        -0.9174   -1.2828    2.1329 HC        1 <0>        0.05081
     21 H11        -0.8853   -2.1918    0.6478 HC        1 <0>        0.05081
     22 H12        -2.0303   -0.8349    0.8532 HC        1 <0>        0.05081
     23 H13         0.1909    0.4455    3.0216 H2        1 <0>        0.05651
     24 H14        -0.2219    2.1423    2.7951 H2        1 <0>        0.05651
     25 H15         1.9714    1.8117    3.2954 HO        1 <0>        0.41853
     26 H16         1.4354   -1.5922    0.3456 HO        1 <0>        0.42114
@<TRIPOS>BOND
     1    1    6 1
     2    2    6 1
     3    3    6 1
     4    4    7 1
     5    5    8 1
     6    5   10 1
     7    6    7 1
     8    7    9 1
     9    7   10 1
    10    1   11 1
    11    1   12 1
    12    1   13 1
    13    2   14 1
    14    2   15 1
    15    2   16 1
    16    3   17 1
    17    3   18 1
    18    3   19 1
    19    4   20 1
    20    4   21 1
    21    4   22 1
    22    5   23 1
    23    5   24 1
    24    8   25 1
    25    9   26 1
@<TRIPOS>SUBSTRUCTURE
     1 <0>         1 GROUP 0 A     ****
