@<TRIPOS>MOLECULE
AlkEthOH_r960
   23    23     1     0     0
SMALL
USER_CHARGES

@<TRIPOS>ATOM
      1 C1          0.6537    0.6311   -1.7930 CT        1 <0>       -0.10843
      2 C2          0.6227   -0.8597   -1.4594 CT        1 <0>       -0.07242
      3 C3         -0.1200   -0.7287    0.9679 CT        1 <0>       -0.13393
      4 C4          0.7732    1.5446   -0.5822 CT        1 <0>        0.13409
      5 C5         -0.4397   -1.2821   -0.4285 CT        1 <0>       -0.05693
      6 C6         -0.5978    0.7069    1.2083 CT        1 <0>        0.33544
      7 C7         -0.4945   -2.8135   -0.3710 CT        1 <0>       -0.09243
      8 O1         -0.4721    1.5859    0.0989 OS        1 <0>       -0.40635
      9 O2          0.0746    1.2155    2.3591 OH        1 <0>       -0.62427
     10 H1          1.5001    0.8149   -2.4651 HC        1 <0>        0.04982
     11 H2         -0.2601    0.8816   -2.3462 HC        1 <0>        0.04982
     12 H3          0.4540   -1.4051   -2.3971 HC        1 <0>        0.03904
     13 H4          1.6170   -1.1646   -1.1070 HC        1 <0>        0.03904
     14 H5         -0.5760   -1.3557    1.7462 HC        1 <0>        0.05316
     15 H6          0.9595   -0.8019    1.1584 HC        1 <0>        0.05316
     16 H7          1.6026    1.2685    0.0786 H1        1 <0>        0.05471
     17 H8          0.9687    2.5628   -0.9358 H1        1 <0>        0.05471
     18 H9         -1.4263   -0.9271   -0.7520 HC        1 <0>        0.05925
     19 H10        -1.6667    0.6712    1.4494 H2        1 <0>        0.06183
     20 H11         0.4702   -3.1995   -0.0528 HC        1 <0>        0.03484
     21 H12        -0.7335   -3.2053   -1.3560 HC        1 <0>        0.03484
     22 H13        -1.2590   -3.1229    0.3366 HC        1 <0>        0.03484
     23 H14        -0.1643    0.6335    3.0966 HO        1 <0>        0.40617
@<TRIPOS>BOND
     1    1    2 1
     2    1    4 1
     3    2    5 1
     4    3    5 1
     5    3    6 1
     6    4    8 1
     7    5    7 1
     8    6    8 1
     9    6    9 1
    10    1   10 1
    11    1   11 1
    12    2   12 1
    13    2   13 1
    14    3   14 1
    15    3   15 1
    16    4   16 1
    17    4   17 1
    18    5   18 1
    19    6   19 1
    20    7   20 1
    21    7   21 1
    22    7   22 1
    23    9   23 1
@<TRIPOS>SUBSTRUCTURE
     1 <0>         1 GROUP 0 A     ****
