@<TRIPOS>MOLECULE
AlkEthOH_r56
   27    27     1     0     0
SMALL
USER_CHARGES

@<TRIPOS>ATOM
      1 C1          0.9112   -2.1829    0.7945 CT        1 <0>       -0.07953
      2 C2          0.5033   -2.0098   -0.6718 CT        1 <0>       -0.07946
      3 C3          0.6202   -1.0158    1.7454 CT        1 <0>       -0.07032
      4 C4         -1.0073   -1.8557   -0.8919 CT        1 <0>       -0.07032
      5 C5          1.4067    0.2683    1.4559 CT        1 <0>       -0.12398
      6 C6         -1.4376   -0.5265   -1.5267 CT        1 <0>       -0.12398
      7 C7          0.5854    1.3697    0.7752 CT        1 <0>        0.34006
      8 C8         -1.2353    0.6812   -0.6117 CT        1 <0>        0.34006
      9 O1          0.1618    0.9248   -0.5056 OS        1 <0>       -0.39169
     10 O2          1.3820    2.5469    0.6389 OH        1 <0>       -0.59441
     11 O3         -1.8903    1.7996   -1.2021 OH        1 <0>       -0.59441
     12 H1          0.4104   -3.0765    1.1893 HC        1 <0>        0.04589
     13 H2          1.9859   -2.4027    0.8283 HC        1 <0>        0.04589
     14 H3          1.0764   -1.2053   -1.1417 HC        1 <0>        0.04589
     15 H4          0.8203   -2.9225   -1.1948 HC        1 <0>        0.04589
     16 H5         -0.4547   -0.8204    1.8082 HC        1 <0>        0.03858
     17 H6          0.9124   -1.3554    2.7484 HC        1 <0>        0.03858
     18 H7         -1.3288   -2.6547   -1.5733 HC        1 <0>        0.03858
     19 H8         -1.5637   -2.0180    0.0384 HC        1 <0>        0.03858
     20 H9          1.7856    0.6717    2.4043 HC        1 <0>        0.05723
     21 H10         2.2970    0.0418    0.8557 HC        1 <0>        0.05723
     22 H11        -0.8934   -0.3788   -2.4684 HC        1 <0>        0.05723
     23 H12        -2.4995   -0.5962   -1.7955 HC        1 <0>        0.05723
     24 H13        -0.2811    1.6408    1.4143 H2        1 <0>        0.03566
     25 H14        -1.7050    0.4772    0.3579 H2        1 <0>        0.03566
     26 H15         1.6375    2.8103    1.5359 HO        1 <0>        0.40493
     27 H16        -2.8282    1.5637   -1.2770 HO        1 <0>        0.40493
@<TRIPOS>BOND
     1    1    2 1
     2    1    3 1
     3    2    4 1
     4    3    5 1
     5    4    6 1
     6    5    7 1
     7    6    8 1
     8    7    9 1
     9    7   10 1
    10    8    9 1
    11    8   11 1
    12    1   12 1
    13    1   13 1
    14    2   14 1
    15    2   15 1
    16    3   16 1
    17    3   17 1
    18    4   18 1
    19    4   19 1
    20    5   20 1
    21    5   21 1
    22    6   22 1
    23    6   23 1
    24    7   24 1
    25    8   25 1
    26   10   26 1
    27   11   27 1
@<TRIPOS>SUBSTRUCTURE
     1 <0>         1 GROUP 0 A     ****
