@<TRIPOS>MOLECULE
AlkEthOH_r818
   29    29     1     0     0
SMALL
USER_CHARGES

@<TRIPOS>ATOM
      1 C1          0.9466    2.0132    0.4332 CT        1 <0>       -0.10711
      2 C2          1.6460    0.9214    1.2563 CT        1 <0>       -0.10711
      3 C3         -1.0682   -1.2080   -0.6954 CT        1 <0>       -0.08246
      4 C4          0.9551    1.7465   -1.0778 CT        1 <0>        0.13491
      5 C5          0.6932    0.1187    2.1519 CT        1 <0>        0.13491
      6 C6         -0.8627    0.1942   -1.2936 CT        1 <0>        0.13993
      7 C7         -0.2359   -1.4368    0.5779 CT        1 <0>        0.13993
      8 C8         -1.5038    0.2994   -2.6724 CT        1 <0>       -0.11403
      9 C9         -0.6432   -2.7312    1.2719 CT        1 <0>       -0.11403
     10 O1          0.5404    0.4271   -1.4198 OS        1 <0>       -0.42428
     11 O2         -0.4675   -0.3444    1.4679 OS        1 <0>       -0.42428
     12 H1         -0.0816    2.1550    0.7836 HC        1 <0>        0.04868
     13 H2          1.4551    2.9701    0.6049 HC        1 <0>        0.04868
     14 H3          2.2018    0.2448    0.5979 HC        1 <0>        0.04868
     15 H4          2.3966    1.3898    1.9051 HC        1 <0>        0.04868
     16 H5         -2.1363   -1.3344   -0.4774 HC        1 <0>        0.05221
     17 H6         -0.7916   -1.9766   -1.4282 HC        1 <0>        0.05221
     18 H7          0.3440    2.4866   -1.6071 H1        1 <0>        0.04246
     19 H8          1.9807    1.8563   -1.4476 H1        1 <0>        0.04246
     20 H9          1.2170   -0.7205    2.6238 H1        1 <0>        0.04246
     21 H10         0.3399    0.7691    2.9598 H1        1 <0>        0.04246
     22 H11        -1.3306    0.9340   -0.6340 H1        1 <0>        0.05606
     23 H12         0.8227   -1.5073    0.3024 H1        1 <0>        0.05606
     24 H13        -1.0546   -0.4279   -3.3483 HC        1 <0>        0.04042
     25 H14        -1.3530    1.2998   -3.0776 HC        1 <0>        0.04042
     26 H15        -2.5736    0.1034   -2.6013 HC        1 <0>        0.04042
     27 H16        -1.6943   -2.6862    1.5565 HC        1 <0>        0.04042
     28 H17        -0.0399   -2.8792    2.1673 HC        1 <0>        0.04042
     29 H18        -0.4939   -3.5765    0.6003 HC        1 <0>        0.04042
@<TRIPOS>BOND
     1    1    2 1
     2    1    4 1
     3    2    5 1
     4    3    6 1
     5    3    7 1
     6    4   10 1
     7    5   11 1
     8    6    8 1
     9    6   10 1
    10    7    9 1
    11    7   11 1
    12    1   12 1
    13    1   13 1
    14    2   14 1
    15    2   15 1
    16    3   16 1
    17    3   17 1
    18    4   18 1
    19    4   19 1
    20    5   20 1
    21    5   21 1
    22    6   22 1
    23    7   23 1
    24    8   24 1
    25    8   25 1
    26    8   26 1
    27    9   27 1
    28    9   28 1
    29    9   29 1
@<TRIPOS>SUBSTRUCTURE
     1 <0>         1 GROUP 0 A     ****
