@<TRIPOS>MOLECULE
AlkEthOH_c219
   22    21     1     0     0
SMALL
USER_CHARGES

@<TRIPOS>ATOM
      1 C1          0.9511   -0.3029    0.4536 CT        1 <0>       -0.10292
      2 C2         -0.0965   -0.0035    2.7071 CT        1 <0>       -0.10292
      3 C3         -0.3277   -2.7985    2.8276 CT        1 <0>        0.11460
      4 C4          2.0341   -1.3283    2.5217 CT        1 <0>       -0.11066
      5 C5          3.1477   -0.2918    2.3858 CT        1 <0>        0.13740
      6 C6          0.7167   -0.9506    1.8190 CT        1 <0>        0.15360
      7 O1          4.3165   -0.7579    3.0505 OH        1 <0>       -0.60333
      8 O2         -0.0614   -2.1299    1.6054 OS        1 <0>       -0.42293
      9 H1          1.5313   -0.9566   -0.2063 HC        1 <0>        0.04440
     10 H2         -0.0011   -0.1288   -0.0613 HC        1 <0>        0.04440
     11 H3          1.4719    0.6556    0.5466 HC        1 <0>        0.04440
     12 H4         -0.2827   -0.4378    3.6949 HC        1 <0>        0.04440
     13 H5          0.4244    0.9518    2.8392 HC        1 <0>        0.04440
     14 H6         -1.0619    0.2337    2.2454 HC        1 <0>        0.04440
     15 H7         -0.9228   -3.6938    2.6319 H1        1 <0>        0.03281
     16 H8         -0.8688   -2.1282    3.5002 H1        1 <0>        0.03281
     17 H9          0.6199   -3.0871    3.2887 H1        1 <0>        0.03281
     18 H10         2.4113   -2.2733    2.1074 HC        1 <0>        0.06309
     19 H11         1.8528   -1.5238    3.5865 HC        1 <0>        0.06309
     20 H12         3.4068   -0.1238    1.3365 H1        1 <0>        0.02314
     21 H13         2.8675    0.6670    2.8311 H1        1 <0>        0.02314
     22 H14         4.9929   -0.0712    2.9383 HO        1 <0>        0.39987
@<TRIPOS>BOND
     1    1    6 1
     2    2    6 1
     3    3    8 1
     4    4    5 1
     5    4    6 1
     6    5    7 1
     7    6    8 1
     8    1    9 1
     9    1   10 1
    10    1   11 1
    11    2   12 1
    12    2   13 1
    13    2   14 1
    14    3   15 1
    15    3   16 1
    16    3   17 1
    17    4   18 1
    18    4   19 1
    19    5   20 1
    20    5   21 1
    21    7   22 1
@<TRIPOS>SUBSTRUCTURE
     1 <0>         1 GROUP 0 A     ****
