@<TRIPOS>MOLECULE
AlkEthOH_r558
   26    26     1     0     0
SMALL
USER_CHARGES

@<TRIPOS>ATOM
      1 C1          1.5200    0.8629    0.2499 CT        1 <0>       -0.14352
      2 C2         -1.3950   -0.3156    0.6869 CT        1 <0>       -0.10741
      3 C3          1.1689    0.5837    1.7014 CT        1 <0>        0.13843
      4 C4         -0.6137   -1.0081    1.8036 CT        1 <0>        0.13262
      5 C5          0.3167    0.9927   -0.6908 CT        1 <0>        0.15241
      6 C6         -0.7108   -0.1789   -0.6968 CT        1 <0>       -0.03231
      7 C7         -0.0760   -1.5062   -1.1528 CT        1 <0>       -0.08875
      8 C8         -1.8253    0.1659   -1.7201 CT        1 <0>       -0.08875
      9 O1          0.7836   -0.7746    1.8338 OS        1 <0>       -0.41922
     10 O2          0.8316    1.1782   -2.0150 OH        1 <0>       -0.60052
     11 H1          2.0947    1.7969    0.1966 HC        1 <0>        0.05714
     12 H2          2.1931    0.0823   -0.1277 HC        1 <0>        0.05714
     13 H3         -2.3474   -0.8540    0.5862 HC        1 <0>        0.04684
     14 H4         -1.6767    0.6885    1.0333 HC        1 <0>        0.04684
     15 H5          2.0724    0.7123    2.3072 H1        1 <0>        0.04535
     16 H6          0.4147    1.2724    2.0989 H1        1 <0>        0.04535
     17 H7         -1.0363   -0.7300    2.7764 H1        1 <0>        0.04392
     18 H8         -0.7450   -2.0923    1.7131 H1        1 <0>        0.04392
     19 H9         -0.2137    1.9192   -0.4289 H1        1 <0>        0.02367
     20 H10         0.3893   -1.3638   -2.1219 HC        1 <0>        0.04169
     21 H11        -0.8484   -2.2640   -1.2246 HC        1 <0>        0.04169
     22 H12         0.6710   -1.8110   -0.4283 HC        1 <0>        0.04169
     23 H13        -1.3758    0.2676   -2.6976 HC        1 <0>        0.04169
     24 H14        -2.2908    1.0945   -1.4224 HC        1 <0>        0.04169
     25 H15        -2.5510   -0.6348   -1.7218 HC        1 <0>        0.04169
     26 H16         1.3611    1.9878   -1.9868 HO        1 <0>        0.39671
@<TRIPOS>BOND
     1    1    3 1
     2    1    5 1
     3    2    4 1
     4    2    6 1
     5    3    9 1
     6    4    9 1
     7    5    6 1
     8    5   10 1
     9    6    7 1
    10    6    8 1
    11    1   11 1
    12    1   12 1
    13    2   13 1
    14    2   14 1
    15    3   15 1
    16    3   16 1
    17    4   17 1
    18    4   18 1
    19    5   19 1
    20    7   20 1
    21    7   21 1
    22    7   22 1
    23    8   23 1
    24    8   24 1
    25    8   25 1
    26   10   26 1
@<TRIPOS>SUBSTRUCTURE
     1 <0>         1 GROUP 0 A     ****
