@<TRIPOS>MOLECULE
AlkEthOH_c1267
   24    23     1     0     0
SMALL
USER_CHARGES

@<TRIPOS>ATOM
      1 C1         -3.1151   -2.3314   -5.8263 CT        1 <0>       -0.09575
      2 C2         -0.7980   -0.6513   -0.3742 CT        1 <0>       -0.08584
      3 C3         -1.0504    0.7940   -2.4065 CT        1 <0>       -0.08584
      4 C4          0.4975   -1.1771   -2.4496 CT        1 <0>       -0.08584
      5 C5         -3.1075   -2.3651   -4.3128 CT        1 <0>        0.12879
      6 C6         -2.0056   -1.5227   -2.4157 CT        1 <0>        0.13612
      7 C7         -0.8419   -0.6460   -1.9115 CT        1 <0>       -0.05403
      8 O1         -2.0610   -1.5301   -3.8366 OS        1 <0>       -0.42249
      9 H1         -3.2852   -1.3153   -6.1931 HC        1 <0>        0.04443
     10 H2         -2.1632   -2.6967   -6.2254 HC        1 <0>        0.04443
     11 H3         -3.8985   -2.9858   -6.2228 HC        1 <0>        0.04443
     12 H4         -0.6501   -1.6659    0.0121 HC        1 <0>        0.03729
     13 H5         -1.7337   -0.2679    0.0485 HC        1 <0>        0.03729
     14 H6          0.0162   -0.0261    0.0081 HC        1 <0>        0.03729
     15 H7         -1.0866    0.8348   -3.5010 HC        1 <0>        0.03729
     16 H8         -1.9892    1.2123   -2.0264 HC        1 <0>        0.03729
     17 H9         -0.2362    1.4481   -2.0747 HC        1 <0>        0.03729
     18 H10         0.5146   -1.1923   -3.5449 HC        1 <0>        0.03729
     19 H11         0.6840   -2.2001   -2.1031 HC        1 <0>        0.03729
     20 H12         1.3331   -0.5543   -2.1108 HC        1 <0>        0.03729
     21 H13        -2.9370   -3.3840   -3.9526 H1        1 <0>        0.02240
     22 H14        -4.0590   -1.9991   -3.9157 H1        1 <0>        0.02240
     23 H15        -2.9646   -1.1479   -2.0407 H1        1 <0>        0.02559
     24 H16        -1.8872   -2.5577   -2.0754 H1        1 <0>        0.02559
@<TRIPOS>BOND
     1    1    5 1
     2    2    7 1
     3    3    7 1
     4    4    7 1
     5    5    8 1
     6    6    7 1
     7    6    8 1
     8    1    9 1
     9    1   10 1
    10    1   11 1
    11    2   12 1
    12    2   13 1
    13    2   14 1
    14    3   15 1
    15    3   16 1
    16    3   17 1
    17    4   18 1
    18    4   19 1
    19    4   20 1
    20    5   21 1
    21    5   22 1
    22    6   23 1
    23    6   24 1
@<TRIPOS>SUBSTRUCTURE
     1 <0>         1 GROUP 0 A     ****
