@<TRIPOS>MOLECULE
AlkEthOH_r691
   27    27     1     0     0
SMALL
USER_CHARGES

@<TRIPOS>ATOM
      1 C1         -1.9153   -0.6317   -0.9833 CT        1 <0>       -0.05621
      2 C2         -0.6438   -0.6418   -1.8365 CT        1 <0>       -0.10933
      3 C3         -1.7549   -0.3189    0.5102 CT        1 <0>       -0.09056
      4 C4          0.4925   -1.5155   -1.3063 CT        1 <0>        0.14423
      5 C5         -0.9674    0.9547    0.8398 CT        1 <0>        0.35919
      6 C6          1.2643    0.0086    0.4497 CT        1 <0>        0.35774
      7 C7          2.5365    0.4129   -0.3067 CT        1 <0>       -0.11094
      8 C8          1.6065   -0.0741    1.9428 CT        1 <0>       -0.11094
      9 O1          0.8452   -1.3035    0.0557 OS        1 <0>       -0.44777
     10 O2          0.3058    1.0456    0.2104 OS        1 <0>       -0.49103
     11 O3         -1.7693    2.0637    0.4241 OH        1 <0>       -0.59833
     12 H1         -2.5912    0.1427   -1.3978 HC        1 <0>        0.03981
     13 H2         -2.4716   -1.5828   -1.1069 HC        1 <0>        0.03981
     14 H3         -0.9016   -1.0215   -2.8399 HC        1 <0>        0.05370
     15 H4         -0.2918    0.3885   -2.0061 HC        1 <0>        0.05370
     16 H5         -2.7547   -0.2561    0.9712 HC        1 <0>        0.05963
     17 H6         -1.2643   -1.1776    0.9967 HC        1 <0>        0.05963
     18 H7          0.1816   -2.5638   -1.3762 H1        1 <0>        0.04300
     19 H8          1.3777   -1.4251   -1.9431 H1        1 <0>        0.04300
     20 H9         -0.8948    1.0440    1.9546 H2        1 <0>        0.02331
     21 H10         2.3205    0.4787   -1.3694 HC        1 <0>        0.05330
     22 H11         3.3092   -0.3323   -0.1398 HC        1 <0>        0.05330
     23 H12         2.8805    1.3785    0.0534 HC        1 <0>        0.05330
     24 H13         0.7195   -0.3594    2.5005 HC        1 <0>        0.05330
     25 H14         1.9559    0.8947    2.2866 HC        1 <0>        0.05330
     26 H15         2.3849   -0.8160    2.0935 HC        1 <0>        0.05330
     27 H16        -1.2637    2.8630    0.6364 HO        1 <0>        0.41856
@<TRIPOS>BOND
     1    1    2 1
     2    1    3 1
     3    2    4 1
     4    3    5 1
     5    4    9 1
     6    5   10 1
     7    5   11 1
     8    6    7 1
     9    6    8 1
    10    6    9 1
    11    6   10 1
    12    1   12 1
    13    1   13 1
    14    2   14 1
    15    2   15 1
    16    3   16 1
    17    3   17 1
    18    4   18 1
    19    4   19 1
    20    5   20 1
    21    7   21 1
    22    7   22 1
    23    7   23 1
    24    8   24 1
    25    8   25 1
    26    8   26 1
    27   11   27 1
@<TRIPOS>SUBSTRUCTURE
     1 <0>         1 GROUP 0 A     ****
