@<TRIPOS>MOLECULE
AlkEthOH_r647
   27    27     1     0     0
SMALL
USER_CHARGES

@<TRIPOS>ATOM
      1 C1          2.2530    0.1315    0.8071 CT        1 <0>       -0.15053
      2 C2          2.1016   -1.2919    0.2661 CT        1 <0>        0.13683
      3 C3          1.8659    1.2267   -0.1886 CT        1 <0>        0.14144
      4 C4         -0.2786   -1.4521    0.5543 CT        1 <0>        0.13018
      5 C5         -0.5112    1.0631    0.1072 CT        1 <0>        0.34586
      6 C6         -1.2360   -0.3161    0.1060 CT        1 <0>       -0.07320
      7 C7         -2.4305   -0.2749    1.0790 CT        1 <0>       -0.08332
      8 C8         -1.7722   -0.6362   -1.3071 CT        1 <0>       -0.08332
      9 O1          0.8360   -1.5645   -0.3285 OS        1 <0>       -0.40360
     10 O2          0.5935    1.0284   -0.7962 OS        1 <0>       -0.43284
     11 O3         -1.4216    2.0859   -0.2993 OH        1 <0>       -0.61624
     12 H1          1.6399    0.2357    1.7084 HC        1 <0>        0.05143
     13 H2          3.2893    0.2872    1.1292 HC        1 <0>        0.05143
     14 H3          2.8563   -1.4601   -0.5100 H1        1 <0>        0.04720
     15 H4          2.2917   -2.0241    1.0595 H1        1 <0>        0.04720
     16 H5          1.8899    2.2111    0.2930 H1        1 <0>        0.04763
     17 H6          2.6024    1.2484   -0.9991 H1        1 <0>        0.04763
     18 H7          0.0372   -1.3171    1.5958 H1        1 <0>        0.04168
     19 H8         -0.8060   -2.4130    0.5164 H1        1 <0>        0.04168
     20 H9         -0.1952    1.3116    1.1277 H2        1 <0>        0.03012
     21 H10        -3.1079    0.5157    0.7765 HC        1 <0>        0.04365
     22 H11        -2.0655   -0.0825    2.0815 HC        1 <0>        0.04365
     23 H12        -2.9439   -1.2294    1.0515 HC        1 <0>        0.04365
     24 H13        -2.4400    0.1577   -1.6179 HC        1 <0>        0.04365
     25 H14        -2.3061   -1.5778   -1.2755 HC        1 <0>        0.04365
     26 H15        -0.9367   -0.7069   -1.9925 HC        1 <0>        0.04365
     27 H16        -0.9241    2.9171   -0.2815 HO        1 <0>        0.42084
@<TRIPOS>BOND
     1    1    2 1
     2    1    3 1
     3    2    9 1
     4    3   10 1
     5    4    6 1
     6    4    9 1
     7    5    6 1
     8    5   10 1
     9    5   11 1
    10    6    7 1
    11    6    8 1
    12    1   12 1
    13    1   13 1
    14    2   14 1
    15    2   15 1
    16    3   16 1
    17    3   17 1
    18    4   18 1
    19    4   19 1
    20    5   20 1
    21    7   21 1
    22    7   22 1
    23    7   23 1
    24    8   24 1
    25    8   25 1
    26    8   26 1
    27   11   27 1
@<TRIPOS>SUBSTRUCTURE
     1 <0>         1 GROUP 0 A     ****
