@<TRIPOS>MOLECULE
AlkEthOH_c633
   25    24     1     0     0
SMALL
USER_CHARGES

@<TRIPOS>ATOM
      1 C1          1.8449    1.3095   -0.6476 CT        1 <0>       -0.13196
      2 C2          3.3099   -1.4008   -3.7175 CT        1 <0>       -0.10108
      3 C3          3.9924   -2.7060   -1.6948 CT        1 <0>       -0.10108
      4 C4          1.4139   -3.7942   -1.6644 CT        1 <0>        0.11733
      5 C5          2.0673   -1.0299   -1.5592 CT        1 <0>       -0.09861
      6 C6          2.6796    0.3802   -1.5208 CT        1 <0>        0.14355
      7 C7          2.8129   -2.0681   -2.4299 CT        1 <0>        0.15936
      8 O1          3.9933    0.3480   -0.9741 OH        1 <0>       -0.60250
      9 O2          1.9228   -3.1204   -2.8044 OS        1 <0>       -0.42820
     10 H1          1.7551    0.9241    0.3725 HC        1 <0>        0.04304
     11 H2          2.2848    2.3122   -0.6079 HC        1 <0>        0.04304
     12 H3          0.8391    1.4247   -1.0662 HC        1 <0>        0.04304
     13 H4          2.4899   -0.9323   -4.2714 HC        1 <0>        0.04632
     14 H5          3.7980   -2.1310   -4.3732 HC        1 <0>        0.04632
     15 H6          4.0623   -0.6352   -3.4959 HC        1 <0>        0.04632
     16 H7          3.6568   -3.1892   -0.7696 HC        1 <0>        0.04632
     17 H8          4.4933   -3.4580   -2.3127 HC        1 <0>        0.04632
     18 H9          4.7275   -1.9547   -1.3873 HC        1 <0>        0.04632
     19 H10         0.7379   -4.5915   -1.9831 H1        1 <0>        0.03004
     20 H11         0.8815   -3.0835   -1.0274 H1        1 <0>        0.03004
     21 H12         2.2471   -4.2276   -1.1062 H1        1 <0>        0.03004
     22 H13         2.0438   -1.4103   -0.5285 HC        1 <0>        0.05629
     23 H14         1.0276   -0.9555   -1.9033 HC        1 <0>        0.05629
     24 H15         2.7375    0.8105   -2.5256 H1        1 <0>        0.03567
     25 H16         4.3263    1.2590   -0.9967 HO        1 <0>        0.39778
@<TRIPOS>BOND
     1    1    6 1
     2    2    7 1
     3    3    7 1
     4    4    9 1
     5    5    6 1
     6    5    7 1
     7    6    8 1
     8    7    9 1
     9    1   10 1
    10    1   11 1
    11    1   12 1
    12    2   13 1
    13    2   14 1
    14    2   15 1
    15    3   16 1
    16    3   17 1
    17    3   18 1
    18    4   19 1
    19    4   20 1
    20    4   21 1
    21    5   22 1
    22    5   23 1
    23    6   24 1
    24    8   25 1
@<TRIPOS>SUBSTRUCTURE
     1 <0>         1 GROUP 0 A     ****
