@<TRIPOS>MOLECULE
AlkEthOH_c127
   18    17     1     0     0
SMALL
USER_CHARGES

@<TRIPOS>ATOM
      1 C1         -1.8835    0.7274    1.0977 CT        1 <0>       -0.12892
      2 C2          1.8657   -0.8811    0.7923 CT        1 <0>        0.33225
      3 C3         -1.2387    0.7819   -0.2810 CT        1 <0>        0.11707
      4 C4         -0.0614   -0.1898   -0.4244 CT        1 <0>        0.33485
      5 O1          2.6085   -1.2802   -0.3501 OH        1 <0>       -0.61060
      6 O2         -2.2409    0.4525   -1.2420 OH        1 <0>       -0.59065
      7 O3          0.4146   -0.0828   -1.7657 OH        1 <0>       -0.61404
      8 O4          0.9445    0.1713    0.5222 OS        1 <0>       -0.48452
      9 H1         -2.2185   -0.2914    1.3216 HC        1 <0>        0.05000
     10 H2         -2.7458    1.3967    1.1695 HC        1 <0>        0.05000
     11 H3         -1.1624    0.9986    1.8768 HC        1 <0>        0.05000
     12 H4          1.3399   -1.7521    1.1979 H2        1 <0>        0.05815
     13 H5          2.5664   -0.5325    1.5576 H2        1 <0>        0.05815
     14 H6         -0.9120    1.8090   -0.4824 H1        1 <0>        0.04920
     15 H7         -0.4110   -1.2170   -0.2586 H2        1 <0>        0.08265
     16 H8          3.2041   -1.9956   -0.0696 HO        1 <0>        0.41765
     17 H9         -2.9412    1.1156   -1.1464 HO        1 <0>        0.40555
     18 H10         0.6922    0.8396   -1.8974 HO        1 <0>        0.42321
@<TRIPOS>BOND
     1    1    3 1
     2    2    5 1
     3    2    8 1
     4    3    4 1
     5    3    6 1
     6    4    7 1
     7    4    8 1
     8    1    9 1
     9    1   10 1
    10    1   11 1
    11    2   12 1
    12    2   13 1
    13    3   14 1
    14    4   15 1
    15    5   16 1
    16    6   17 1
    17    7   18 1
@<TRIPOS>SUBSTRUCTURE
     1 <0>         1 GROUP 0 A     ****
