@<TRIPOS>MOLECULE
AlkEthOH_c772
   13    12     1     0     0
SMALL
USER_CHARGES

@<TRIPOS>ATOM
      1 C1         -0.4238    0.8108    0.6004 CT        1 <0>       -0.13123
      2 C2         -0.8331   -0.7088    2.5635 CT        1 <0>        0.13463
      3 C3         -0.1831    0.5832    2.0850 CT        1 <0>        0.12123
      4 O1         -0.5999   -0.8539    3.9604 OH        1 <0>       -0.59781
      5 O2         -0.7516    1.6685    2.8163 OH        1 <0>       -0.60084
      6 H1         -1.4974    0.8254    0.3837 HC        1 <0>        0.04351
      7 H2          0.0100    1.7589    0.2680 HC        1 <0>        0.04351
      8 H3          0.0060   -0.0016    0.0041 HC        1 <0>        0.04351
      9 H4         -1.9163   -0.6903    2.4039 H1        1 <0>        0.04259
     10 H5         -0.4036   -1.5777    2.0553 H1        1 <0>        0.04259
     11 H6          0.8907    0.5686    2.3018 H1        1 <0>        0.05349
     12 H7         -1.0260   -1.6832    4.2284 HO        1 <0>        0.40492
     13 H8         -0.3051    2.4715    2.5073 HO        1 <0>        0.39990
@<TRIPOS>BOND
     1    1    3 1
     2    2    3 1
     3    2    4 1
     4    3    5 1
     5    1    6 1
     6    1    7 1
     7    1    8 1
     8    2    9 1
     9    2   10 1
    10    3   11 1
    11    4   12 1
    12    5   13 1
@<TRIPOS>SUBSTRUCTURE
     1 <0>         1 GROUP 0 A     ****
