@<TRIPOS>MOLECULE
AlkEthOH_r760
   26    26     1     0     0
SMALL
USER_CHARGES

@<TRIPOS>ATOM
      1 C1          0.8645    2.1916   -0.1710 CT        1 <0>        0.09636
      2 C2          1.5085    1.3194    0.8949 CT        1 <0>        0.09806
      3 C3         -0.5727    0.6579   -1.2681 CT        1 <0>        0.13478
      4 C4          0.1490   -0.6351    0.8368 CT        1 <0>        0.14857
      5 C5         -0.7272   -0.6499   -0.4519 CT        1 <0>       -0.09249
      6 C6          0.3983   -2.0102    1.4584 CT        1 <0>       -0.09627
      7 C7         -0.3676   -1.8169   -1.3940 CT        1 <0>       -0.08726
      8 C8         -2.2077   -0.8034   -0.0401 CT        1 <0>       -0.08726
      9 O1         -0.4859    1.8157   -0.4375 OS        1 <0>       -0.41536
     10 O2          1.4409   -0.0691    0.5726 OS        1 <0>       -0.41732
     11 H1          0.8524    3.2295    0.1784 H1        1 <0>        0.05201
     12 H2          1.4484    2.1755   -1.0987 H1        1 <0>        0.05201
     13 H3          2.5679    1.5839    0.9782 H1        1 <0>        0.05231
     14 H4          1.0585    1.4995    1.8784 H1        1 <0>        0.05231
     15 H5          0.2914    0.6045   -1.9432 H1        1 <0>        0.05004
     16 H6         -1.4453    0.7976   -1.9176 H1        1 <0>        0.05004
     17 H7         -0.3616   -0.0400    1.6064 H1        1 <0>        0.04803
     18 H8          0.9054   -2.6511    0.7402 HC        1 <0>        0.04386
     19 H9         -0.5504   -2.4644    1.7367 HC        1 <0>        0.04386
     20 H10         1.0192   -1.9046    2.3456 HC        1 <0>        0.04386
     21 H11        -0.4652   -2.7512   -0.8535 HC        1 <0>        0.03831
     22 H12         0.6535   -1.6942   -1.7359 HC        1 <0>        0.03831
     23 H13        -1.0433   -1.8090   -2.2413 HC        1 <0>        0.03831
     24 H14        -2.3214   -1.7166    0.5311 HC        1 <0>        0.03831
     25 H15        -2.8187   -0.8474   -0.9333 HC        1 <0>        0.03831
     26 H16        -2.4953    0.0488    0.5634 HC        1 <0>        0.03831
@<TRIPOS>BOND
     1    1    2 1
     2    1    9 1
     3    2   10 1
     4    3    5 1
     5    3    9 1
     6    4    5 1
     7    4    6 1
     8    4   10 1
     9    5    7 1
    10    5    8 1
    11    1   11 1
    12    1   12 1
    13    2   13 1
    14    2   14 1
    15    3   15 1
    16    3   16 1
    17    4   17 1
    18    6   18 1
    19    6   19 1
    20    6   20 1
    21    7   21 1
    22    7   22 1
    23    7   23 1
    24    8   24 1
    25    8   25 1
    26    8   26 1
@<TRIPOS>SUBSTRUCTURE
     1 <0>         1 GROUP 0 A     ****
