@<TRIPOS>MOLECULE
AlkEthOH_c1138
   18    17     1     0     0
SMALL
USER_CHARGES

@<TRIPOS>ATOM
      1 C1          0.4039   -1.0521   -0.1122 CT        1 <0>       -0.09137
      2 C2         -5.0940   -3.8298    0.2320 CT        1 <0>        0.11718
      3 C3         -0.5795   -2.0238    0.5201 CT        1 <0>       -0.07953
      4 C4         -1.9307   -1.9925   -0.1885 CT        1 <0>       -0.08358
      5 C5         -2.9047   -2.9950    0.4140 CT        1 <0>        0.12749
      6 O1         -4.1328   -2.9264   -0.2974 OS        1 <0>       -0.42292
      7 H1          0.0153   -0.0289   -0.0876 HC        1 <0>        0.03438
      8 H2          1.3640   -1.0679    0.4135 HC        1 <0>        0.03438
      9 H3          0.5844   -1.3218   -1.1574 HC        1 <0>        0.03438
     10 H4         -6.0229   -3.7498   -0.3380 H1        1 <0>        0.03203
     11 H5         -5.2774   -3.5933    1.2831 H1        1 <0>        0.03203
     12 H6         -4.7065   -4.8482    0.1519 H1        1 <0>        0.03203
     13 H7         -0.1611   -3.0362    0.4794 HC        1 <0>        0.03794
     14 H8         -0.7076   -1.7680    1.5784 HC        1 <0>        0.03794
     15 H9         -2.3650   -0.9865   -0.1342 HC        1 <0>        0.05463
     16 H10        -1.8040   -2.2065   -1.2572 HC        1 <0>        0.05463
     17 H11        -2.5139   -4.0145    0.3363 H1        1 <0>        0.02418
     18 H12        -3.0991   -2.7668    1.4668 H1        1 <0>        0.02418
@<TRIPOS>BOND
     1    1    3 1
     2    2    6 1
     3    3    4 1
     4    4    5 1
     5    5    6 1
     6    1    7 1
     7    1    8 1
     8    1    9 1
     9    2   10 1
    10    2   11 1
    11    2   12 1
    12    3   13 1
    13    3   14 1
    14    4   15 1
    15    4   16 1
    16    5   17 1
    17    5   18 1
@<TRIPOS>SUBSTRUCTURE
     1 <0>         1 GROUP 0 A     ****
