@<TRIPOS>MOLECULE
AlkEthOH_c588
   25    24     1     0     0
SMALL
USER_CHARGES

@<TRIPOS>ATOM
      1 C1          3.6289   -1.6855   -5.8837 CT        1 <0>       -0.10791
      2 C2          2.9241   -4.0515   -5.3768 CT        1 <0>       -0.10791
      3 C3          0.3447    0.7253   -0.5470 CT        1 <0>       -0.13052
      4 C4          1.4087   -0.7635   -2.2846 CT        1 <0>       -0.07599
      5 C5          1.5600   -1.0781   -3.7687 CT        1 <0>        0.13182
      6 C6          2.5571   -2.5786   -5.2776 CT        1 <0>        0.14040
      7 C7          0.5256    0.4604   -2.0353 CT        1 <0>        0.13978
      8 O1         -0.7572    0.2665   -2.6248 OH        1 <0>       -0.60359
      9 O2          2.3773   -2.2322   -3.9112 OS        1 <0>       -0.42500
     10 H1          4.5956   -1.8366   -5.3936 HC        1 <0>        0.04219
     11 H2          3.7415   -1.8968   -6.9525 HC        1 <0>        0.04219
     12 H3          3.3549   -0.6280   -5.7998 HC        1 <0>        0.04219
     13 H4          3.8739   -4.2590   -4.8747 HC        1 <0>        0.04219
     14 H5          3.0097   -4.3531   -6.4263 HC        1 <0>        0.04219
     15 H6          2.1470   -4.6821   -4.9309 HC        1 <0>        0.04219
     16 H7         -0.1001   -0.1368   -0.0408 HC        1 <0>        0.04416
     17 H8         -0.2939    1.5993   -0.3773 HC        1 <0>        0.04416
     18 H9          1.3101    0.9458   -0.0790 HC        1 <0>        0.04416
     19 H10         2.4018   -0.6112   -1.8439 HC        1 <0>        0.06092
     20 H11         0.9851   -1.6454   -1.7866 HC        1 <0>        0.06092
     21 H12         0.5897   -1.2834   -4.2314 H1        1 <0>        0.03336
     22 H13         2.0382   -0.2466   -4.2961 H1        1 <0>        0.03336
     23 H14         1.6045   -2.4042   -5.7883 H1        1 <0>        0.03489
     24 H15         0.9719    1.3437   -2.5051 H1        1 <0>        0.03098
     25 H16        -1.2581    1.0827   -2.4715 HO        1 <0>        0.39887
@<TRIPOS>BOND
     1    1    6 1
     2    2    6 1
     3    3    7 1
     4    4    5 1
     5    4    7 1
     6    5    9 1
     7    6    9 1
     8    7    8 1
     9    1   10 1
    10    1   11 1
    11    1   12 1
    12    2   13 1
    13    2   14 1
    14    2   15 1
    15    3   16 1
    16    3   17 1
    17    3   18 1
    18    4   19 1
    19    4   20 1
    20    5   21 1
    21    5   22 1
    22    6   23 1
    23    7   24 1
    24    8   25 1
@<TRIPOS>SUBSTRUCTURE
     1 <0>         1 GROUP 0 A     ****
