@<TRIPOS>MOLECULE
AlkEthOH_c704
   27    26     1     0     0
SMALL
USER_CHARGES

@<TRIPOS>ATOM
      1 C1          2.5463    1.8039   -1.6885 CT        1 <0>       -0.13031
      2 C2         -1.8907   -1.9877    0.9988 CT        1 <0>       -0.08601
      3 C3         -2.1433    0.4827    0.7289 CT        1 <0>       -0.08601
      4 C4         -0.3970   -0.4247    2.2683 CT        1 <0>       -0.08601
      5 C5          0.7361    0.6276   -0.3837 CT        1 <0>       -0.07036
      6 C6         -0.1312   -0.6353   -0.2593 CT        1 <0>       -0.06652
      7 C7          1.7262    0.5280   -1.5510 CT        1 <0>        0.13845
      8 C8         -1.1246   -0.6560    0.9338 CT        1 <0>       -0.05441
      9 O1          1.0047    0.3137   -2.7608 OH        1 <0>       -0.60129
     10 H1          1.9032    2.6760   -1.8405 HC        1 <0>        0.04219
     11 H2          3.2464    1.7314   -2.5281 HC        1 <0>        0.04219
     12 H3          3.1500    1.9701   -0.7896 HC        1 <0>        0.04219
     13 H4         -1.2169   -2.8382    1.1441 HC        1 <0>        0.03333
     14 H5         -2.4601   -2.1610    0.0789 HC        1 <0>        0.03333
     15 H6         -2.6003   -1.9932    1.8343 HC        1 <0>        0.03333
     16 H7         -1.6453    1.4575    0.6757 HC        1 <0>        0.03333
     17 H8         -2.7070    0.3470   -0.2012 HC        1 <0>        0.03333
     18 H9         -2.8637    0.5225    1.5538 HC        1 <0>        0.03333
     19 H10         0.1639    0.5156    2.2675 HC        1 <0>        0.03333
     20 H11        -1.1050   -0.3950    3.1040 HC        1 <0>        0.03333
     21 H12         0.3212   -1.2280    2.4699 HC        1 <0>        0.03333
     22 H13         1.2957    0.7909    0.5432 HC        1 <0>        0.04789
     23 H14         0.0862    1.4956   -0.5423 HC        1 <0>        0.04789
     24 H15        -0.6983   -0.7673   -1.1903 HC        1 <0>        0.04774
     25 H16         0.5339   -1.5061   -0.1820 HC        1 <0>        0.04774
     26 H17         2.3968   -0.3254   -1.4002 H1        1 <0>        0.02807
     27 H18         1.6654    0.2319   -3.4660 HO        1 <0>        0.39660
@<TRIPOS>BOND
     1    1    7 1
     2    2    8 1
     3    3    8 1
     4    4    8 1
     5    5    6 1
     6    5    7 1
     7    6    8 1
     8    7    9 1
     9    1   10 1
    10    1   11 1
    11    1   12 1
    12    2   13 1
    13    2   14 1
    14    2   15 1
    15    3   16 1
    16    3   17 1
    17    3   18 1
    18    4   19 1
    19    4   20 1
    20    4   21 1
    21    5   22 1
    22    5   23 1
    23    6   24 1
    24    6   25 1
    25    7   26 1
    26    9   27 1
@<TRIPOS>SUBSTRUCTURE
     1 <0>         1 GROUP 0 A     ****
