@<TRIPOS>MOLECULE
AlkEthOH_r246
   25    25     1     0     0
SMALL
USER_CHARGES

@<TRIPOS>ATOM
      1 C1          1.1715    1.1203   -0.9513 CT        1 <0>       -0.10370
      2 C2          0.5659   -0.9313    0.5643 CT        1 <0>       -0.16641
      3 C3          0.2295    0.7278   -2.0945 CT        1 <0>        0.14225
      4 C4         -1.7593    0.3758   -0.7982 CT        1 <0>        0.33046
      5 C5          1.6473   -0.0302   -0.0546 CT        1 <0>        0.16629
      6 C6         -0.6213   -0.2344    1.2596 CT        1 <0>        0.36582
      7 C7         -0.1483    0.4558    2.5432 CT        1 <0>       -0.11788
      8 O1         -0.8163   -0.1606   -1.7207 OS        1 <0>       -0.44709
      9 O2         -1.2340    0.7830    0.4622 OS        1 <0>       -0.44246
     10 O3          2.5250   -0.8525   -0.8286 OH        1 <0>       -0.60191
     11 O4         -1.5600   -1.2536    1.6186 OH        1 <0>       -0.62408
     12 H1          2.0466    1.6067   -1.4019 HC        1 <0>        0.06344
     13 H2          0.6977    1.8897   -0.3324 HC        1 <0>        0.06344
     14 H3          0.1964   -1.6352   -0.1934 HC        1 <0>        0.06505
     15 H4          1.0507   -1.6084    1.2834 HC        1 <0>        0.06505
     16 H5         -0.1986    1.6231   -2.5602 H1        1 <0>        0.05134
     17 H6          0.8094    0.2155   -2.8702 H1        1 <0>        0.05134
     18 H7         -2.2430    1.2459   -1.2551 H2        1 <0>        0.07380
     19 H8         -2.5403   -0.3747   -0.6378 H2        1 <0>        0.07380
     20 H9          2.2540    0.4023    0.7497 H1        1 <0>        0.02303
     21 H10        -0.9912    0.9439    3.0260 HC        1 <0>        0.05287
     22 H11         0.6074    1.1984    2.3001 HC        1 <0>        0.05287
     23 H12         0.2760   -0.2829    3.2187 HC        1 <0>        0.05287
     24 H13         2.8113   -1.5690   -0.2437 HO        1 <0>        0.39741
     25 H14        -1.0909   -1.8548    2.2149 HO        1 <0>        0.41240
@<TRIPOS>BOND
     1    1    3 1
     2    1    5 1
     3    2    5 1
     4    2    6 1
     5    3    8 1
     6    4    8 1
     7    4    9 1
     8    5   10 1
     9    6    7 1
    10    6    9 1
    11    6   11 1
    12    1   12 1
    13    1   13 1
    14    2   14 1
    15    2   15 1
    16    3   16 1
    17    3   17 1
    18    4   18 1
    19    4   19 1
    20    5   20 1
    21    7   21 1
    22    7   22 1
    23    7   23 1
    24   10   24 1
    25   11   25 1
@<TRIPOS>SUBSTRUCTURE
     1 <0>         1 GROUP 0 A     ****
