@<TRIPOS>MOLECULE
AlkEthOH_r478
   34    34     1     0     0
SMALL
USER_CHARGES

@<TRIPOS>ATOM
      1 C1          0.9173    2.0912   -0.3278 CT        1 <0>       -0.10890
      2 C2          0.1829    1.2408   -1.3724 CT        1 <0>       -0.06652
      3 C3          0.5706   -0.9948   -0.0365 CT        1 <0>       -0.05804
      4 C4          0.1136    2.3638    0.9432 CT        1 <0>        0.13336
      5 C5         -1.1479    0.3739    1.3339 CT        1 <0>        0.13647
      6 C6          0.5312   -0.2717   -1.4164 CT        1 <0>       -0.04166
      7 C7         -0.6436   -1.0263    0.9397 CT        1 <0>       -0.06332
      8 C8          1.9495   -0.4290   -2.0334 CT        1 <0>       -0.08917
      9 C9         -0.4409   -0.9596   -2.3961 CT        1 <0>       -0.08917
     10 C10        -1.8228   -1.8503    0.3978 CT        1 <0>       -0.08862
     11 C11        -0.1476   -1.7394    2.2266 CT        1 <0>       -0.08862
     12 O1         -0.0625    1.2013    1.7415 OS        1 <0>       -0.41861
     13 H1          1.8816    1.6451   -0.0665 HC        1 <0>        0.04945
     14 H2          1.1368    3.0651   -0.7837 HC        1 <0>        0.04945
     15 H3         -0.8986    1.3897   -1.2858 HC        1 <0>        0.03643
     16 H4          0.4281    1.6627   -2.3584 HC        1 <0>        0.03643
     17 H5          0.8525   -2.0416   -0.2290 HC        1 <0>        0.04415
     18 H6          1.4272   -0.5875    0.5201 HC        1 <0>        0.04415
     19 H7          0.6808    3.0740    1.5554 H1        1 <0>        0.04265
     20 H8         -0.8490    2.8417    0.7253 H1        1 <0>        0.04265
     21 H9         -1.7442    0.8293    0.5375 H1        1 <0>        0.03995
     22 H10        -1.8251    0.2958    2.1938 H1        1 <0>        0.03995
     23 H11         2.1938   -1.4804   -2.0649 HC        1 <0>        0.03361
     24 H12         2.6536    0.1037   -1.4117 HC        1 <0>        0.03361
     25 H13         1.9365   -0.0143   -3.0303 HC        1 <0>        0.03361
     26 H14        -0.2111   -2.0179   -2.4387 HC        1 <0>        0.03361
     27 H15        -0.3248   -0.5179   -3.3790 HC        1 <0>        0.03361
     28 H16        -1.4567   -0.8171   -2.0459 HC        1 <0>        0.03361
     29 H17        -2.6336   -1.8344    1.1192 HC        1 <0>        0.03598
     30 H18        -1.5005   -2.8738    0.2344 HC        1 <0>        0.03598
     31 H19        -2.1606   -1.4203   -0.5399 HC        1 <0>        0.03598
     32 H20        -0.9644   -1.7818    2.9326 HC        1 <0>        0.03598
     33 H21         0.6757   -1.1733    2.6377 HC        1 <0>        0.03598
     34 H22         0.1752   -2.7366    1.9643 HC        1 <0>        0.03598
@<TRIPOS>BOND
     1    1    2 1
     2    1    4 1
     3    2    6 1
     4    3    6 1
     5    3    7 1
     6    4   12 1
     7    5    7 1
     8    5   12 1
     9    6    8 1
    10    6    9 1
    11    7   10 1
    12    7   11 1
    13    1   13 1
    14    1   14 1
    15    2   15 1
    16    2   16 1
    17    3   17 1
    18    3   18 1
    19    4   19 1
    20    4   20 1
    21    5   21 1
    22    5   22 1
    23    8   23 1
    24    8   24 1
    25    8   25 1
    26    9   26 1
    27    9   27 1
    28    9   28 1
    29   10   29 1
    30   10   30 1
    31   10   31 1
    32   11   32 1
    33   11   33 1
    34   11   34 1
@<TRIPOS>SUBSTRUCTURE
     1 <0>         1 GROUP 0 A     ****
