@<TRIPOS>MOLECULE
AlkEthOH_r463
   27    27     1     0     0
SMALL
USER_CHARGES

@<TRIPOS>ATOM
      1 C1          0.6721    1.5996   -1.3476 CT        1 <0>       -0.10669
      2 C2          1.1677    0.1753   -1.5972 CT        1 <0>       -0.10437
      3 C3         -0.3718   -1.1041   -0.0072 CT        1 <0>       -0.11258
      4 C4         -0.7557    1.6745   -0.8329 CT        1 <0>        0.13812
      5 C5          1.0878   -0.7941   -0.4018 CT        1 <0>        0.16504
      6 C6         -1.1455   -0.0436    0.8099 CT        1 <0>        0.35780
      7 C7          1.7907   -2.1039   -0.7967 CT        1 <0>       -0.12562
      8 C8         -0.9170   -0.2321    2.3141 CT        1 <0>       -0.11457
      9 O1         -0.7825    1.3070    0.5378 OS        1 <0>       -0.39825
     10 O2          1.8088   -0.2359    0.6921 OH        1 <0>       -0.58858
     11 O3         -2.5546   -0.2428    0.6297 OH        1 <0>       -0.63257
     12 H1          1.3460    2.0925   -0.6363 HC        1 <0>        0.05207
     13 H2          0.7392    2.1531   -2.2918 HC        1 <0>        0.05207
     14 H3          0.6192   -0.2466   -2.4496 HC        1 <0>        0.04382
     15 H4          2.2153    0.2610   -1.9166 HC        1 <0>        0.04382
     16 H5         -0.9330   -1.3318   -0.9253 HC        1 <0>        0.05830
     17 H6         -0.4065   -2.0456    0.5596 HC        1 <0>        0.05830
     18 H7         -1.0868    2.7175   -0.8815 H1        1 <0>        0.05430
     19 H8         -1.4534    1.0860   -1.4392 H1        1 <0>        0.05430
     20 H9          1.7444   -2.8002    0.0343 HC        1 <0>        0.04234
     21 H10         2.8273   -1.8950   -1.0405 HC        1 <0>        0.04234
     22 H11         1.2917   -2.5322   -1.6601 HC        1 <0>        0.04234
     23 H12        -1.4711    0.5248    2.8620 HC        1 <0>        0.05698
     24 H13         0.1425   -0.1356    2.5341 HC        1 <0>        0.05698
     25 H14        -1.2605   -1.2189    2.6115 HC        1 <0>        0.05698
     26 H15         2.7245   -0.1240    0.3922 HO        1 <0>        0.40034
     27 H16        -2.7396   -1.1362    0.9496 HO        1 <0>        0.40699
@<TRIPOS>BOND
     1    1    2 1
     2    1    4 1
     3    2    5 1
     4    3    5 1
     5    3    6 1
     6    4    9 1
     7    5    7 1
     8    5   10 1
     9    6    8 1
    10    6    9 1
    11    6   11 1
    12    1   12 1
    13    1   13 1
    14    2   14 1
    15    2   15 1
    16    3   16 1
    17    3   17 1
    18    4   18 1
    19    4   19 1
    20    7   20 1
    21    7   21 1
    22    7   22 1
    23    8   23 1
    24    8   24 1
    25    8   25 1
    26   10   26 1
    27   11   27 1
@<TRIPOS>SUBSTRUCTURE
     1 <0>         1 GROUP 0 A     ****
