@<TRIPOS>MOLECULE
AlkEthOH_r492
   23    23     1     0     0
SMALL
USER_CHARGES

@<TRIPOS>ATOM
      1 C1         -1.1574   -1.3574   -0.0500 CT        1 <0>       -0.11111
      2 C2          0.3191   -1.2720    0.3430 CT        1 <0>       -0.05511
      3 C3          0.7271    1.2222   -0.2077 CT        1 <0>       -0.13254
      4 C4         -1.4794   -0.8334   -1.4465 CT        1 <0>        0.13031
      5 C5         -0.5917    1.3364   -0.9654 CT        1 <0>        0.13280
      6 C6          0.7675    0.1122    0.8572 CT        1 <0>        0.15146
      7 C7          2.1913    0.0154    1.4235 CT        1 <0>       -0.12528
      8 O1         -0.6906    0.2604   -1.8880 OS        1 <0>       -0.42104
      9 O2         -0.0860    0.5162    1.9340 OH        1 <0>       -0.60071
     10 H1         -1.4854   -2.4035   -0.0002 HC        1 <0>        0.05627
     11 H2         -1.7738   -0.8278    0.6856 HC        1 <0>        0.05627
     12 H3          0.4640   -1.9969    1.1558 HC        1 <0>        0.05180
     13 H4          0.9543   -1.6009   -0.4886 HC        1 <0>        0.05180
     14 H5          1.5319    1.0495   -0.9341 HC        1 <0>        0.05303
     15 H6          0.9194    2.1886    0.2755 HC        1 <0>        0.05303
     16 H7         -1.3230   -1.6383   -2.1734 H1        1 <0>        0.04150
     17 H8         -2.5387   -0.5587   -1.5107 H1        1 <0>        0.04150
     18 H9         -1.4634    1.4014   -0.3045 H1        1 <0>        0.04981
     19 H10        -0.5693    2.2561   -1.5602 H1        1 <0>        0.04981
     20 H11         2.5033    0.9910    1.7842 HC        1 <0>        0.04308
     21 H12         2.8686   -0.3164    0.6420 HC        1 <0>        0.04308
     22 H13         2.2059   -0.6968    2.2433 HC        1 <0>        0.04308
     23 H14         0.2337    1.3837    2.2199 HO        1 <0>        0.39716
@<TRIPOS>BOND
     1    1    2 1
     2    1    4 1
     3    2    6 1
     4    3    5 1
     5    3    6 1
     6    4    8 1
     7    5    8 1
     8    6    7 1
     9    6    9 1
    10    1   10 1
    11    1   11 1
    12    2   12 1
    13    2   13 1
    14    3   14 1
    15    3   15 1
    16    4   16 1
    17    4   17 1
    18    5   18 1
    19    5   19 1
    20    7   20 1
    21    7   21 1
    22    7   22 1
    23    9   23 1
@<TRIPOS>SUBSTRUCTURE
     1 <0>         1 GROUP 0 A     ****
