@<TRIPOS>MOLECULE
AlkEthOH_r870
   23    23     1     0     0
SMALL
USER_CHARGES

@<TRIPOS>ATOM
      1 C1         -1.0811    1.6936    0.5790 CT        1 <0>       -0.07486
      2 C2         -1.8977    0.4022    0.6153 CT        1 <0>       -0.06994
      3 C3          0.4155    1.5258    0.8409 CT        1 <0>       -0.10433
      4 C4         -1.5770   -0.5235   -0.5535 CT        1 <0>       -0.13667
      5 C5          1.0990    0.4872   -0.0524 CT        1 <0>        0.14754
      6 C6         -0.3571   -1.4194   -0.3299 CT        1 <0>        0.33861
      7 C7          2.6141    0.5705    0.1109 CT        1 <0>       -0.09554
      8 O1          0.7136   -0.8142    0.3839 OS        1 <0>       -0.40640
      9 O2          0.0706   -1.9221   -1.5943 OH        1 <0>       -0.62496
     10 H1         -1.2224    2.1854   -0.3917 HC        1 <0>        0.03863
     11 H2         -1.4846    2.3825    1.3315 HC        1 <0>        0.03863
     12 H3         -1.7671   -0.1144    1.5731 HC        1 <0>        0.04574
     13 H4         -2.9574    0.6790    0.5490 HC        1 <0>        0.04574
     14 H5          0.8926    2.5043    0.7065 HC        1 <0>        0.04936
     15 H6          0.5480    1.2440    1.8936 HC        1 <0>        0.04936
     16 H7         -2.4386   -1.1749   -0.7512 HC        1 <0>        0.05146
     17 H8         -1.4571    0.0623   -1.4743 HC        1 <0>        0.05146
     18 H9          0.8589    0.6460   -1.1105 H1        1 <0>        0.05491
     19 H10        -0.6743   -2.2809    0.2692 H2        1 <0>        0.06196
     20 H11         2.8831    0.4161    1.1549 HC        1 <0>        0.04442
     21 H12         2.9673    1.5508   -0.2062 HC        1 <0>        0.04442
     22 H13         3.0947   -0.1947   -0.4973 HC        1 <0>        0.04442
     23 H14        -0.6753   -2.4238   -1.9574 HO        1 <0>        0.40604
@<TRIPOS>BOND
     1    1    2 1
     2    1    3 1
     3    2    4 1
     4    3    5 1
     5    4    6 1
     6    5    7 1
     7    5    8 1
     8    6    8 1
     9    6    9 1
    10    1   10 1
    11    1   11 1
    12    2   12 1
    13    2   13 1
    14    3   14 1
    15    3   15 1
    16    4   16 1
    17    4   17 1
    18    5   18 1
    19    6   19 1
    20    7   20 1
    21    7   21 1
    22    7   22 1
    23    9   23 1
@<TRIPOS>SUBSTRUCTURE
     1 <0>         1 GROUP 0 A     ****
