@<TRIPOS>MOLECULE
AlkEthOH_c309
   26    25     1     0     0
SMALL
USER_CHARGES

@<TRIPOS>ATOM
      1 C1          1.8498   -0.9626    1.3973 CT        1 <0>       -0.08790
      2 C2          2.2830    0.9542   -0.1411 CT        1 <0>       -0.08790
      3 C3         -1.5914   -1.4890   -2.1706 CT        1 <0>       -0.12738
      4 C4         -0.5840    1.9064    0.3146 CT        1 <0>       -0.14899
      5 C5          1.3866    0.4474    0.9952 CT        1 <0>       -0.07622
      6 C6         -1.6456   -0.5586   -0.9667 CT        1 <0>        0.34107
      7 C7         -0.1316    0.4761    0.6404 CT        1 <0>        0.35360
      8 O1         -2.5318   -1.0975    0.0085 OH        1 <0>       -0.58632
      9 O2         -0.8266    0.0261    1.8089 OH        1 <0>       -0.58590
     10 O3         -0.3139   -0.4055   -0.4777 OS        1 <0>       -0.40174
     11 H1          1.7166   -1.6632    0.5655 HC        1 <0>        0.04084
     12 H2          2.9113   -0.9729    1.6639 HC        1 <0>        0.04084
     13 H3          1.2802   -1.3459    2.2505 HC        1 <0>        0.04084
     14 H4          2.1644    0.3479   -1.0439 HC        1 <0>        0.04084
     15 H5          2.0208    1.9834   -0.4102 HC        1 <0>        0.04084
     16 H6          3.3402    0.9430    0.1432 HC        1 <0>        0.04084
     17 H7         -1.1958   -2.4704   -1.8906 HC        1 <0>        0.05198
     18 H8         -0.9363   -1.0792   -2.9478 HC        1 <0>        0.05198
     19 H9         -2.5847   -1.6110   -2.6141 HC        1 <0>        0.05198
     20 H10        -1.6499    1.9400    0.0633 HC        1 <0>        0.04982
     21 H11        -0.0394    2.3210   -0.5393 HC        1 <0>        0.04982
     22 H12        -0.4585    2.5653    1.1808 HC        1 <0>        0.04982
     23 H13         1.5480    1.0915    1.8705 HC        1 <0>        0.03961
     24 H14        -2.0456    0.4045   -1.2959 H2        1 <0>        0.02310
     25 H15        -3.4141   -1.1773   -0.3915 HO        1 <0>        0.39689
     26 H16        -0.6091    0.6249    2.5427 HO        1 <0>        0.39764
@<TRIPOS>BOND
     1    1    5 1
     2    2    5 1
     3    3    6 1
     4    4    7 1
     5    5    7 1
     6    6    8 1
     7    6   10 1
     8    7    9 1
     9    7   10 1
    10    1   11 1
    11    1   12 1
    12    1   13 1
    13    2   14 1
    14    2   15 1
    15    2   16 1
    16    3   17 1
    17    3   18 1
    18    3   19 1
    19    4   20 1
    20    4   21 1
    21    4   22 1
    22    5   23 1
    23    6   24 1
    24    8   25 1
    25    9   26 1
@<TRIPOS>SUBSTRUCTURE
     1 <0>         1 GROUP 0 A     ****
