@<TRIPOS>MOLECULE
AlkEthOH_c1029
   35    34     1     0     0
SMALL
USER_CHARGES

@<TRIPOS>ATOM
      1 C1         -3.3639   -1.8210   -1.7557 CT        1 <0>       -0.09315
      2 C2          1.5805    1.9401    1.3326 CT        1 <0>       -0.08742
      3 C3          1.8050    2.3047   -1.1165 CT        1 <0>       -0.08742
      4 C4          2.8336    0.2956   -0.0898 CT        1 <0>       -0.08742
      5 C5         -1.0734   -0.2537    1.6958 CT        1 <0>       -0.08689
      6 C6          0.8324   -1.6859    0.9477 CT        1 <0>       -0.08689
      7 C7         -2.4945   -0.8769   -0.9365 CT        1 <0>       -0.08195
      8 C8         -1.2215   -1.5799   -0.4486 CT        1 <0>       -0.07395
      9 C9          0.2795    0.4748   -0.3619 CT        1 <0>       -0.05948
     10 C10         1.6072    1.2244   -0.0224 CT        1 <0>       -0.04753
     11 C11        -0.2727   -0.7308    0.4670 CT        1 <0>       -0.04249
     12 H1         -3.6429   -2.7039   -1.1718 HC        1 <0>        0.03199
     13 H2         -4.2835   -1.3151   -2.0664 HC        1 <0>        0.03199
     14 H3         -2.8392   -2.1554   -2.6564 HC        1 <0>        0.03199
     15 H4          1.4424    1.2249    2.1523 HC        1 <0>        0.03340
     16 H5          2.5196    2.4721    1.5190 HC        1 <0>        0.03340
     17 H6          0.7552    2.6534    1.4012 HC        1 <0>        0.03340
     18 H7          1.8330    1.8549   -2.1156 HC        1 <0>        0.03340
     19 H8          0.9910    3.0385   -1.1014 HC        1 <0>        0.03340
     20 H9          2.7435    2.8527   -0.9732 HC        1 <0>        0.03340
     21 H10         2.8750   -0.2290   -1.0521 HC        1 <0>        0.03340
     22 H11         2.7985   -0.4663    0.6967 HC        1 <0>        0.03340
     23 H12         3.7768    0.8365    0.0051 HC        1 <0>        0.03340
     24 H13        -1.8795    0.4322    1.4250 HC        1 <0>        0.03426
     25 H14        -1.5227   -1.0920    2.2382 HC        1 <0>        0.03426
     26 H15        -0.4282    0.2882    2.3975 HC        1 <0>        0.03426
     27 H16         1.4301   -2.0522    0.1043 HC        1 <0>        0.03426
     28 H17         1.5178   -1.1839    1.6388 HC        1 <0>        0.03426
     29 H18         0.4228   -2.5715    1.4403 HC        1 <0>        0.03426
     30 H19        -2.2417   -0.0129   -1.5593 HC        1 <0>        0.04029
     31 H20        -3.0813   -0.5119   -0.0875 HC        1 <0>        0.04029
     32 H21        -0.6548   -1.9220   -1.3256 HC        1 <0>        0.03838
     33 H22        -1.5176   -2.4903    0.0909 HC        1 <0>        0.03838
     34 H23        -0.5156    1.2340   -0.3757 HC        1 <0>        0.03756
     35 H24         0.3684    0.1419   -1.4069 HC        1 <0>        0.03756
@<TRIPOS>BOND
     1    1    7 1
     2    2   10 1
     3    3   10 1
     4    4   10 1
     5    5   11 1
     6    6   11 1
     7    7    8 1
     8    8   11 1
     9    9   10 1
    10    9   11 1
    11    1   12 1
    12    1   13 1
    13    1   14 1
    14    2   15 1
    15    2   16 1
    16    2   17 1
    17    3   18 1
    18    3   19 1
    19    3   20 1
    20    4   21 1
    21    4   22 1
    22    4   23 1
    23    5   24 1
    24    5   25 1
    25    5   26 1
    26    6   27 1
    27    6   28 1
    28    6   29 1
    29    7   30 1
    30    7   31 1
    31    8   32 1
    32    8   33 1
    33    9   34 1
    34    9   35 1
@<TRIPOS>SUBSTRUCTURE
     1 <0>         1 GROUP 0 A     ****
