@<TRIPOS>MOLECULE
AlkEthOH_c1231
   27    26     1     0     0
SMALL
USER_CHARGES

@<TRIPOS>ATOM
      1 C1          3.7731    3.6285   -3.2753 CT        1 <0>       -0.09533
      2 C2         -1.0433    0.2797   -0.2505 CT        1 <0>       -0.09114
      3 C3         -2.7747    0.8787   -1.9554 CT        1 <0>       -0.09114
      4 C4          1.5242   -0.0271   -2.9022 CT        1 <0>       -0.12047
      5 C5         -0.3932    1.5685   -2.3523 CT        1 <0>       -0.07549
      6 C6          3.1182    2.4956   -2.5142 CT        1 <0>        0.12856
      7 C7         -1.3085    0.4923   -1.7411 CT        1 <0>       -0.06641
      8 C8          1.1132    1.2947   -2.2678 CT        1 <0>        0.14186
      9 O1          1.7784    2.3548   -2.9577 OS        1 <0>       -0.42461
     10 H1          3.7808    3.4238   -4.3495 HC        1 <0>        0.04393
     11 H2          3.2424    4.5698   -3.0986 HC        1 <0>        0.04393
     12 H3          4.8039    3.7758   -2.9363 HC        1 <0>        0.04393
     13 H4         -1.1958    1.2047    0.3157 HC        1 <0>        0.03406
     14 H5         -0.0200   -0.0647   -0.0734 HC        1 <0>        0.03406
     15 H6         -1.7163   -0.4817    0.1588 HC        1 <0>        0.03406
     16 H7         -3.0042    1.8269   -1.4577 HC        1 <0>        0.03406
     17 H8         -2.9926    1.0015   -3.0217 HC        1 <0>        0.03406
     18 H9         -3.4505    0.1139   -1.5574 HC        1 <0>        0.03406
     19 H10         1.1957   -0.0787   -3.9459 HC        1 <0>        0.04139
     20 H11         2.6154   -0.1234   -2.9127 HC        1 <0>        0.04139
     21 H12         1.1137   -0.8837   -2.3607 HC        1 <0>        0.04139
     22 H13        -0.5949    2.5365   -1.8727 HC        1 <0>        0.05379
     23 H14        -0.6643    1.7160   -3.4070 HC        1 <0>        0.05379
     24 H15         3.1137    2.7066   -1.4406 H1        1 <0>        0.02200
     25 H16         3.6491    1.5557   -2.6925 H1        1 <0>        0.02200
     26 H17        -1.1426   -0.4591   -2.2600 HC        1 <0>        0.04749
     27 H18         1.4485    1.3303   -1.2263 H1        1 <0>        0.03478
@<TRIPOS>BOND
     1    1    6 1
     2    2    7 1
     3    3    7 1
     4    4    8 1
     5    5    7 1
     6    5    8 1
     7    6    9 1
     8    8    9 1
     9    1   10 1
    10    1   11 1
    11    1   12 1
    12    2   13 1
    13    2   14 1
    14    2   15 1
    15    3   16 1
    16    3   17 1
    17    3   18 1
    18    4   19 1
    19    4   20 1
    20    4   21 1
    21    5   22 1
    22    5   23 1
    23    6   24 1
    24    6   25 1
    25    7   26 1
    26    8   27 1
@<TRIPOS>SUBSTRUCTURE
     1 <0>         1 GROUP 0 A     ****
