@<TRIPOS>MOLECULE
AlkEthOH_c957
   23    22     1     0     0
SMALL
USER_CHARGES

@<TRIPOS>ATOM
      1 C1          0.9326    1.7866   -1.9955 CT        1 <0>       -0.08925
      2 C2         -1.2854    1.1374    2.4132 CT        1 <0>       -0.12399
      3 C3          0.2983   -1.7322   -0.3926 CT        1 <0>       -0.14473
      4 C4          0.5776    0.3113   -1.8615 CT        1 <0>       -0.10004
      5 C5         -0.2627    0.2093    1.7755 CT        1 <0>        0.33815
      6 C6          0.6725   -0.2475   -0.4254 CT        1 <0>        0.35509
      7 O1          0.9765    0.4289    2.4391 OH        1 <0>       -0.61016
      8 O2          2.0355   -0.1426   -0.0023 OH        1 <0>       -0.60723
      9 O3         -0.2120    0.5355    0.3881 OS        1 <0>       -0.45201
     10 H1          1.9361    1.9661   -1.5957 HC        1 <0>        0.04079
     11 H2          0.2336    2.4191   -1.4401 HC        1 <0>        0.04079
     12 H3          0.9328    2.1049   -3.0423 HC        1 <0>        0.04079
     13 H4         -1.0015    2.1858    2.2768 HC        1 <0>        0.05276
     14 H5         -2.2815    0.9747    1.9891 HC        1 <0>        0.05276
     15 H6         -1.3547    0.9542    3.4917 HC        1 <0>        0.05276
     16 H7          0.3641   -2.1338    0.6248 HC        1 <0>        0.05419
     17 H8          0.9940   -2.3265   -0.9953 HC        1 <0>        0.05419
     18 H9         -0.7229   -1.9028   -0.7473 HC        1 <0>        0.05419
     19 H10        -0.4285    0.1385   -2.2638 HC        1 <0>        0.04887
     20 H11         1.2607   -0.2566   -2.5075 HC        1 <0>        0.04887
     21 H12        -0.5866   -0.8236    1.9362 H2        1 <0>        0.07041
     22 H13         0.8378    0.2200    3.3784 HO        1 <0>        0.41795
     23 H14         2.5876   -0.6552   -0.6162 HO        1 <0>        0.40485
@<TRIPOS>BOND
     1    1    4 1
     2    2    5 1
     3    3    6 1
     4    4    6 1
     5    5    7 1
     6    5    9 1
     7    6    8 1
     8    6    9 1
     9    1   10 1
    10    1   11 1
    11    1   12 1
    12    2   13 1
    13    2   14 1
    14    2   15 1
    15    3   16 1
    16    3   17 1
    17    3   18 1
    18    4   19 1
    19    4   20 1
    20    5   21 1
    21    7   22 1
    22    8   23 1
@<TRIPOS>SUBSTRUCTURE
     1 <0>         1 GROUP 0 A     ****
