@<TRIPOS>MOLECULE
AlkEthOH_c387
   31    30     1     0     0
SMALL
USER_CHARGES

@<TRIPOS>ATOM
      1 C1         -0.5361   -0.2748    2.0287 CT        1 <0>       -0.09152
      2 C2         -0.9079   -2.4233    0.8109 CT        1 <0>       -0.09152
      3 C3         -2.3461    2.9833    0.0718 CT        1 <0>       -0.12892
      4 C4          0.5788    1.2465   -2.2329 CT        1 <0>       -0.10241
      5 C5          1.9217    0.8707   -0.1563 CT        1 <0>       -0.10241
      6 C6         -0.2724   -0.3947   -0.5266 CT        1 <0>       -0.09267
      7 C7         -0.1036   -1.1177    0.8294 CT        1 <0>       -0.06098
      8 C8         -1.2766    2.4746   -0.8828 CT        1 <0>        0.33583
      9 C9          0.5076    0.9241   -0.7347 CT        1 <0>        0.16249
     10 O1         -0.9009    3.5133   -1.7822 OH        1 <0>       -0.62367
     11 O2         -0.1778    2.0061   -0.1039 OS        1 <0>       -0.40965
     12 H1         -1.5839    0.0268    1.9474 HC        1 <0>        0.03456
     13 H2          0.0539    0.6464    2.0900 HC        1 <0>        0.03456
     14 H3         -0.4040   -0.8216    2.9682 HC        1 <0>        0.03456
     15 H4         -1.9764   -2.2212    0.6805 HC        1 <0>        0.03456
     16 H5         -0.5892   -3.0659   -0.0168 HC        1 <0>        0.03456
     17 H6         -0.7791   -2.9831    1.7436 HC        1 <0>        0.03456
     18 H7         -1.9663    3.8122    0.6774 HC        1 <0>        0.05162
     19 H8         -3.2145    3.3570   -0.4824 HC        1 <0>        0.05162
     20 H9         -2.6959    2.1828    0.7311 HC        1 <0>        0.05162
     21 H10        -0.4180    1.2934   -2.6838 HC        1 <0>        0.04644
     22 H11         1.0815    2.2057   -2.4029 HC        1 <0>        0.04644
     23 H12         1.1668    0.4916   -2.7676 HC        1 <0>        0.04644
     24 H13         1.9093    0.6421    0.9145 HC        1 <0>        0.04644
     25 H14         2.4147    1.8458   -0.2463 HC        1 <0>        0.04644
     26 H15         2.5383    0.1254   -0.6687 HC        1 <0>        0.04644
     27 H16         0.0240   -1.0966   -1.3183 HC        1 <0>        0.04162
     28 H17        -1.3430   -0.1949   -0.6734 HC        1 <0>        0.04162
     29 H18         0.9498   -1.3912    0.9619 HC        1 <0>        0.04655
     30 H19        -1.6892    1.6476   -1.4719 H2        1 <0>        0.03036
     31 H20        -1.6895    3.7836   -2.2817 HO        1 <0>        0.40442
@<TRIPOS>BOND
     1    1    7 1
     2    2    7 1
     3    3    8 1
     4    4    9 1
     5    5    9 1
     6    6    7 1
     7    6    9 1
     8    8   10 1
     9    8   11 1
    10    9   11 1
    11    1   12 1
    12    1   13 1
    13    1   14 1
    14    2   15 1
    15    2   16 1
    16    2   17 1
    17    3   18 1
    18    3   19 1
    19    3   20 1
    20    4   21 1
    21    4   22 1
    22    4   23 1
    23    5   24 1
    24    5   25 1
    25    5   26 1
    26    6   27 1
    27    6   28 1
    28    7   29 1
    29    8   30 1
    30   10   31 1
@<TRIPOS>SUBSTRUCTURE
     1 <0>         1 GROUP 0 A     ****
