@<TRIPOS>MOLECULE
AlkEthOH_c239
   20    19     1     0     0
SMALL
USER_CHARGES

@<TRIPOS>ATOM
      1 C1         -0.4921    0.1122    0.9716 CT        1 <0>       -0.12191
      2 C2          1.6723    0.5912    2.1500 CT        1 <0>       -0.12191
      3 C3          0.7921   -1.7855    2.0067 CT        1 <0>        0.14365
      4 C4          2.0064   -3.5470    3.0091 CT        1 <0>        0.32677
      5 C5          0.4298   -0.2995    2.1208 CT        1 <0>        0.14978
      6 O1          2.8123   -3.8366    1.8759 OH        1 <0>       -0.63400
      7 O2         -0.2710   -0.0901    3.3496 OH        1 <0>       -0.59082
      8 O3          1.6294   -2.1769    3.0890 OS        1 <0>       -0.40643
      9 H1         -1.3862   -0.5210    0.9424 HC        1 <0>        0.04566
     10 H2         -0.8084    1.1564    1.0628 HC        1 <0>        0.04566
     11 H3          0.0077   -0.0148    0.0045 HC        1 <0>        0.04566
     12 H4          2.3454    0.3108    2.9678 HC        1 <0>        0.04566
     13 H5          1.3962    1.6368    2.3298 HC        1 <0>        0.04566
     14 H6          2.2270    0.5381    1.2076 HC        1 <0>        0.04566
     15 H7         -0.1078   -2.4090    2.0456 H1        1 <0>        0.04628
     16 H8          1.3250   -1.9888    1.0718 H1        1 <0>        0.04628
     17 H9          1.1286   -4.2034    3.0271 H2        1 <0>        0.04004
     18 H10         2.6049   -3.7685    3.8974 H2        1 <0>        0.04004
     19 H11         3.0187   -4.7861    1.9047 HO        1 <0>        0.41121
     20 H12        -0.4842    0.8539    3.3830 HO        1 <0>        0.39706
@<TRIPOS>BOND
     1    1    5 1
     2    2    5 1
     3    3    5 1
     4    3    8 1
     5    4    6 1
     6    4    8 1
     7    5    7 1
     8    1    9 1
     9    1   10 1
    10    1   11 1
    11    2   12 1
    12    2   13 1
    13    2   14 1
    14    3   15 1
    15    3   16 1
    16    4   17 1
    17    4   18 1
    18    6   19 1
    19    7   20 1
@<TRIPOS>SUBSTRUCTURE
     1 <0>         1 GROUP 0 A     ****
