@<TRIPOS>MOLECULE
AlkEthOH_r913
   30    30     1     0     0
SMALL
USER_CHARGES

@<TRIPOS>ATOM
      1 C1          0.1364    2.4317   -0.9835 CT        1 <0>       -0.06650
      2 C2          1.0127    2.0313    0.2035 CT        1 <0>       -0.07822
      3 C3         -0.8601    1.3934   -1.4989 CT        1 <0>       -0.11875
      4 C4          1.9545    0.8478   -0.0519 CT        1 <0>       -0.09173
      5 C5         -1.9103    0.9648   -0.4755 CT        1 <0>        0.15422
      6 C6          1.4621   -0.4760    0.5505 CT        1 <0>        0.16017
      7 C7         -0.8625   -1.0985    0.3487 CT        1 <0>        0.53273
      8 C8          2.5970   -1.4975    0.5737 CT        1 <0>       -0.10428
      9 C9         -1.7429   -1.9231   -0.6037 CT        1 <0>       -0.11153
     10 O1         -1.4206    0.1943    0.6158 OS        1 <0>       -0.48507
     11 O2          0.4334   -1.0389   -0.2657 OS        1 <0>       -0.44227
     12 O3         -0.7997   -1.8293    1.5869 OH        1 <0>       -0.61761
     13 H1         -0.4161    3.3393   -0.7083 HC        1 <0>        0.03436
     14 H2          0.7888    2.7209   -1.8174 HC        1 <0>        0.03436
     15 H3          1.6405    2.9042    0.4294 HC        1 <0>        0.04524
     16 H4          0.4078    1.8744    1.1026 HC        1 <0>        0.04524
     17 H5         -1.3900    1.8443   -2.3479 HC        1 <0>        0.05787
     18 H6         -0.3231    0.5343   -1.9081 HC        1 <0>        0.05787
     19 H7          2.1403    0.7362   -1.1267 HC        1 <0>        0.04818
     20 H8          2.9170    1.0959    0.4146 HC        1 <0>        0.04818
     21 H9         -2.3687    1.8614   -0.0421 H1        1 <0>        0.04380
     22 H10        -2.7278    0.4293   -0.9695 H1        1 <0>        0.04380
     23 H11         1.1330   -0.3082    1.5818 H1        1 <0>        0.06705
     24 H12         2.9457   -1.6850   -0.4406 HC        1 <0>        0.04293
     25 H13         2.2441   -2.4316    1.0077 HC        1 <0>        0.04293
     26 H14         3.4242   -1.1168    1.1706 HC        1 <0>        0.04293
     27 H15        -1.2822   -2.8922   -0.7771 HC        1 <0>        0.06075
     28 H16        -1.8459   -1.3980   -1.5496 HC        1 <0>        0.06075
     29 H17        -2.7251   -2.0643   -0.1601 HC        1 <0>        0.06075
     30 H18        -1.7120   -1.9036    1.8984 HO        1 <0>        0.43185
@<TRIPOS>BOND
     1    1    2 1
     2    1    3 1
     3    2    4 1
     4    3    5 1
     5    4    6 1
     6    5   10 1
     7    6    8 1
     8    6   11 1
     9    7    9 1
    10    7   10 1
    11    7   11 1
    12    7   12 1
    13    1   13 1
    14    1   14 1
    15    2   15 1
    16    2   16 1
    17    3   17 1
    18    3   18 1
    19    4   19 1
    20    4   20 1
    21    5   21 1
    22    5   22 1
    23    6   23 1
    24    8   24 1
    25    8   25 1
    26    8   26 1
    27    9   27 1
    28    9   28 1
    29    9   29 1
    30   12   30 1
@<TRIPOS>SUBSTRUCTURE
     1 <0>         1 GROUP 0 A     ****
