@<TRIPOS>MOLECULE
AlkEthOH_r878
   30    30     1     0     0
SMALL
USER_CHARGES

@<TRIPOS>ATOM
      1 C1          2.0422    0.1795    0.0169 CT        1 <0>       -0.07337
      2 C2          1.6658   -1.2992    0.1029 CT        1 <0>       -0.07035
      3 C3          1.5164    1.0434    1.1615 CT        1 <0>       -0.07035
      4 C4          0.5348   -1.7341   -0.8336 CT        1 <0>       -0.07024
      5 C5          0.0566    0.8552    1.5680 CT        1 <0>       -0.07024
      6 C6         -1.0344    0.3035   -0.7491 CT        1 <0>       -0.06921
      7 C7         -0.8810   -1.2129   -0.5134 CT        1 <0>       -0.05960
      8 C8         -1.0212    1.1744    0.5216 CT        1 <0>       -0.05960
      9 C9         -1.8821   -1.9662   -1.4050 CT        1 <0>       -0.09168
     10 C10        -0.9971    2.6564    0.1303 CT        1 <0>       -0.09168
     11 H1          3.1380    0.2518    0.0490 HC        1 <0>        0.03639
     12 H2          1.7647    0.6063   -0.9513 HC        1 <0>        0.03639
     13 H3          2.5517   -1.8770   -0.1942 HC        1 <0>        0.03644
     14 H4          1.4516   -1.6035    1.1332 HC        1 <0>        0.03644
     15 H5          2.1284    0.8302    2.0485 HC        1 <0>        0.03644
     16 H6          1.7059    2.0969    0.9243 HC        1 <0>        0.03644
     17 H7          0.8008   -1.4706   -1.8659 HC        1 <0>        0.03601
     18 H8          0.5091   -2.8320   -0.8051 HC        1 <0>        0.03601
     19 H9         -0.0908   -0.1578    1.9572 HC        1 <0>        0.03601
     20 H10        -0.1208    1.5061    2.4358 HC        1 <0>        0.03601
     21 H11        -0.2918    0.6565   -1.4723 HC        1 <0>        0.03935
     22 H12        -1.9993    0.4968   -1.2397 HC        1 <0>        0.03935
     23 H13        -1.1356   -1.4682    0.5214 HC        1 <0>        0.04463
     24 H14        -1.9834    1.0012    1.0250 HC        1 <0>        0.04463
     25 H15        -1.6714   -1.7455   -2.4466 HC        1 <0>        0.03263
     26 H16        -2.8903   -1.6469   -1.1613 HC        1 <0>        0.03263
     27 H17        -1.7850   -3.0331   -1.2312 HC        1 <0>        0.03263
     28 H18        -0.0617    2.8839   -0.3742 HC        1 <0>        0.03263
     29 H19        -1.0840    3.2695    1.0235 HC        1 <0>        0.03263
     30 H20        -1.8284    2.8697   -0.5366 HC        1 <0>        0.03263
@<TRIPOS>BOND
     1    1    2 1
     2    1    3 1
     3    2    4 1
     4    3    5 1
     5    4    7 1
     6    5    8 1
     7    6    7 1
     8    6    8 1
     9    7    9 1
    10    8   10 1
    11    1   11 1
    12    1   12 1
    13    2   13 1
    14    2   14 1
    15    3   15 1
    16    3   16 1
    17    4   17 1
    18    4   18 1
    19    5   19 1
    20    5   20 1
    21    6   21 1
    22    6   22 1
    23    7   23 1
    24    8   24 1
    25    9   25 1
    26    9   26 1
    27    9   27 1
    28   10   28 1
    29   10   29 1
    30   10   30 1
@<TRIPOS>SUBSTRUCTURE
     1 <0>         1 GROUP 0 A     ****
