@<TRIPOS>MOLECULE
AlkEthOH_c1136
   21    20     1     0     0
SMALL
USER_CHARGES

@<TRIPOS>ATOM
      1 C1          0.8518   -0.3688    0.6905 CT        1 <0>       -0.09221
      2 C2          5.2104   -1.9347   -5.0685 CT        1 <0>        0.11697
      3 C3          1.6513   -1.4310   -0.0471 CT        1 <0>       -0.08011
      4 C4          2.2938   -0.8687   -1.3148 CT        1 <0>       -0.07805
      5 C5          3.1237   -1.9294   -2.0346 CT        1 <0>       -0.08271
      6 C6          3.8013   -1.3663   -3.2758 CT        1 <0>        0.12748
      7 O1          4.5660   -2.3952   -3.8884 OS        1 <0>       -0.42229
      8 H1          1.4856    0.4815    0.9618 HC        1 <0>        0.03313
      9 H2          0.0267    0.0005    0.0732 HC        1 <0>        0.03313
     10 H3          0.4284   -0.7838    1.6105 HC        1 <0>        0.03313
     11 H4          5.7875   -2.7501   -5.5114 H1        1 <0>        0.03191
     12 H5          5.8703   -1.0991   -4.8220 H1        1 <0>        0.03191
     13 H6          4.4520   -1.5997   -5.7801 H1        1 <0>        0.03191
     14 H7          0.9892   -2.2661   -0.3036 HC        1 <0>        0.03967
     15 H8          2.4270   -1.8247    0.6201 HC        1 <0>        0.03967
     16 H9          1.5129   -0.4939   -1.9877 HC        1 <0>        0.03910
     17 H10         2.9330   -0.0158   -1.0553 HC        1 <0>        0.03910
     18 H11         2.4898   -2.7778   -2.3208 HC        1 <0>        0.05476
     19 H12         3.8852   -2.3389   -1.3593 HC        1 <0>        0.05476
     20 H13         4.4727   -0.5420   -3.0147 H1        1 <0>        0.02437
     21 H14         3.0598   -1.0074   -3.9966 H1        1 <0>        0.02437
@<TRIPOS>BOND
     1    1    3 1
     2    2    7 1
     3    3    4 1
     4    4    5 1
     5    5    6 1
     6    6    7 1
     7    1    8 1
     8    1    9 1
     9    1   10 1
    10    2   11 1
    11    2   12 1
    12    2   13 1
    13    3   14 1
    14    3   15 1
    15    4   16 1
    16    4   17 1
    17    5   18 1
    18    5   19 1
    19    6   20 1
    20    6   21 1
@<TRIPOS>SUBSTRUCTURE
     1 <0>         1 GROUP 0 A     ****
