@<TRIPOS>MOLECULE
AlkEthOH_r1007
   23    23     1     0     0
SMALL
USER_CHARGES

@<TRIPOS>ATOM
      1 C1         -1.6748   -0.2899    0.2231 CT        1 <0>       -0.11018
      2 C2          0.5453   -0.6627   -0.9579 CT        1 <0>       -0.10951
      3 C3         -1.4132    0.7639    1.2981 CT        1 <0>        0.12988
      4 C4          0.9357    0.3234    1.3771 CT        1 <0>        0.13328
      5 C5         -0.8795   -0.0941   -1.0773 CT        1 <0>       -0.05393
      6 C6          1.4854    0.1047   -0.0266 CT        1 <0>        0.11434
      7 C7         -1.6033   -0.8048   -2.2274 CT        1 <0>       -0.09214
      8 O1         -0.0980    1.2942    1.3331 OS        1 <0>       -0.41586
      9 O2          2.7024   -0.6346    0.0576 OH        1 <0>       -0.60144
     10 H1         -1.4523   -1.2829    0.6353 HC        1 <0>        0.04688
     11 H2         -2.7539   -0.2941    0.0230 HC        1 <0>        0.04688
     12 H3          0.5025   -1.7149   -0.6434 HC        1 <0>        0.04445
     13 H4          1.0133   -0.6887   -1.9517 HC        1 <0>        0.04445
     14 H5         -2.0817    1.6152    1.1281 H1        1 <0>        0.04501
     15 H6         -1.6656    0.3645    2.2874 H1        1 <0>        0.04501
     16 H7          0.6135   -0.6104    1.8543 H1        1 <0>        0.05914
     17 H8          1.7300    0.7284    2.0148 H1        1 <0>        0.05914
     18 H9         -0.8301    0.9735   -1.3260 HC        1 <0>        0.06163
     19 H10         1.7119    1.0740   -0.4875 H1        1 <0>        0.04664
     20 H11        -1.6697   -1.8680   -2.0125 HC        1 <0>        0.03508
     21 H12        -1.0502   -0.6565   -3.1509 HC        1 <0>        0.03508
     22 H13        -2.6038   -0.3945   -2.3350 HC        1 <0>        0.03508
     23 H14         3.0536   -0.6896   -0.8442 HO        1 <0>        0.40109
@<TRIPOS>BOND
     1    1    3 1
     2    1    5 1
     3    2    5 1
     4    2    6 1
     5    3    8 1
     6    4    6 1
     7    4    8 1
     8    5    7 1
     9    6    9 1
    10    1   10 1
    11    1   11 1
    12    2   12 1
    13    2   13 1
    14    3   14 1
    15    3   15 1
    16    4   16 1
    17    4   17 1
    18    5   18 1
    19    6   19 1
    20    7   20 1
    21    7   21 1
    22    7   22 1
    23    9   23 1
@<TRIPOS>SUBSTRUCTURE
     1 <0>         1 GROUP 0 A     ****
