@<TRIPOS>MOLECULE
AlkEthOH_r724
   23    23     1     0     0
SMALL
USER_CHARGES

@<TRIPOS>ATOM
      1 C1          0.5904    1.3902    1.4828 CT        1 <0>        0.11483
      2 C2          1.6769    0.4409    1.0072 CT        1 <0>        0.11490
      3 C3         -0.9811    0.7658   -0.2356 CT        1 <0>        0.55026
      4 C4          0.5067   -1.1529   -0.3807 CT        1 <0>        0.55026
      5 C5         -1.8755    1.4994   -1.2432 CT        1 <0>       -0.08642
      6 C6          1.6005   -1.6423   -1.3389 CT        1 <0>       -0.08642
      7 O1         -0.2573    1.8151    0.4221 OS        1 <0>       -0.47075
      8 O2          1.1300   -0.8661    0.8753 OS        1 <0>       -0.47075
      9 O3         -0.1352   -0.0593   -1.0467 OS        1 <0>       -0.47733
     10 O4         -1.8304    0.0379    0.6551 OH        1 <0>       -0.62010
     11 O5         -0.4249   -2.2287   -0.1976 OH        1 <0>       -0.62010
     12 H1         -0.0112    0.9549    2.2876 H1        1 <0>        0.06210
     13 H2          1.0598    2.2967    1.8789 H1        1 <0>        0.06210
     14 H3          2.1448    0.7773    0.0763 H1        1 <0>        0.06210
     15 H4          2.4533    0.3765    1.7761 H1        1 <0>        0.06210
     16 H5         -2.4701    0.7768   -1.7969 HC        1 <0>        0.06340
     17 H6         -1.2569    2.0636   -1.9369 HC        1 <0>        0.06340
     18 H7         -2.5375    2.1810   -0.7146 HC        1 <0>        0.06340
     19 H8          1.1619   -1.8706   -2.3073 HC        1 <0>        0.06340
     20 H9          2.0659   -2.5379   -0.9344 HC        1 <0>        0.06340
     21 H10         2.3541   -0.8675   -1.4586 HC        1 <0>        0.06340
     22 H11        -2.3979    0.6925    1.0899 HO        1 <0>        0.43641
     23 H12         0.0813   -2.9635    0.1777 HO        1 <0>        0.43641
@<TRIPOS>BOND
     1    1    2 1
     2    1    7 1
     3    2    8 1
     4    3    5 1
     5    3    7 1
     6    3    9 1
     7    3   10 1
     8    4    6 1
     9    4    8 1
    10    4    9 1
    11    4   11 1
    12    1   12 1
    13    1   13 1
    14    2   14 1
    15    2   15 1
    16    5   16 1
    17    5   17 1
    18    5   18 1
    19    6   19 1
    20    6   20 1
    21    6   21 1
    22   10   22 1
    23   11   23 1
@<TRIPOS>SUBSTRUCTURE
     1 <0>         1 GROUP 0 A     ****
