@<TRIPOS>MOLECULE
AlkEthOH_c922
   32    31     1     0     0
SMALL
USER_CHARGES

@<TRIPOS>ATOM
      1 C1         -0.6086    1.7005   -2.6156 CT        1 <0>       -0.09264
      2 C2          1.6063   -2.4062   -0.1462 CT        1 <0>       -0.08762
      3 C3          1.6725   -0.8192    1.7663 CT        1 <0>       -0.08762
      4 C4         -0.4767   -1.8957    1.1568 CT        1 <0>       -0.08762
      5 C5         -2.0172    0.1910   -0.3370 CT        1 <0>       -0.08722
      6 C6         -0.6921    1.5576    1.2822 CT        1 <0>       -0.08722
      7 C7         -0.5630    2.0898   -1.1418 CT        1 <0>       -0.07626
      8 C8          0.5394   -0.0519   -0.3250 CT        1 <0>       -0.06035
      9 C9          0.8169   -1.3034    0.5677 CT        1 <0>       -0.04649
     10 C10        -0.6729    0.9131   -0.1135 CT        1 <0>       -0.04204
     11 H1          0.1897    0.9826   -2.8319 HC        1 <0>        0.03305
     12 H2         -1.5559    1.2226   -2.8796 HC        1 <0>        0.03305
     13 H3         -0.4577    2.5649   -3.2680 HC        1 <0>        0.03305
     14 H4          1.0542   -2.7946   -1.0088 HC        1 <0>        0.03351
     15 H5          1.8404   -3.2386    0.5223 HC        1 <0>        0.03351
     16 H6          2.5657   -2.0260   -0.5171 HC        1 <0>        0.03351
     17 H7          1.1621   -0.0251    2.3232 HC        1 <0>        0.03351
     18 H8          2.6373   -0.4188    1.4339 HC        1 <0>        0.03351
     19 H9          1.8769   -1.6399    2.4635 HC        1 <0>        0.03351
     20 H10        -1.0644   -1.1299    1.6750 HC        1 <0>        0.03351
     21 H11        -1.1132   -2.3541    0.3977 HC        1 <0>        0.03351
     22 H12        -0.2503   -2.6834    1.8857 HC        1 <0>        0.03351
     23 H13        -2.0469   -0.2849   -1.3244 HC        1 <0>        0.03408
     24 H14        -2.1880   -0.5893    0.4120 HC        1 <0>        0.03408
     25 H15        -2.8677    0.8755   -0.2989 HC        1 <0>        0.03408
     26 H16         0.2480    2.0846    1.4853 HC        1 <0>        0.03408
     27 H17        -1.4875    2.3011    1.3792 HC        1 <0>        0.03408
     28 H18        -0.8184    0.8030    2.0659 HC        1 <0>        0.03408
     29 H19        -1.3739    2.8080   -0.9605 HC        1 <0>        0.03698
     30 H20         0.3711    2.6389   -0.9632 HC        1 <0>        0.03698
     31 H21         0.4741   -0.4122   -1.3619 HC        1 <0>        0.03795
     32 H22         1.4542    0.5587   -0.2974 HC        1 <0>        0.03795
@<TRIPOS>BOND
     1    1    7 1
     2    2    9 1
     3    3    9 1
     4    4    9 1
     5    5   10 1
     6    6   10 1
     7    7   10 1
     8    8    9 1
     9    8   10 1
    10    1   11 1
    11    1   12 1
    12    1   13 1
    13    2   14 1
    14    2   15 1
    15    2   16 1
    16    3   17 1
    17    3   18 1
    18    3   19 1
    19    4   20 1
    20    4   21 1
    21    4   22 1
    22    5   23 1
    23    5   24 1
    24    5   25 1
    25    6   26 1
    26    6   27 1
    27    6   28 1
    28    7   29 1
    29    7   30 1
    30    8   31 1
    31    8   32 1
@<TRIPOS>SUBSTRUCTURE
     1 <0>         1 GROUP 0 A     ****
