@<TRIPOS>MOLECULE
AlkEthOH_c1139
   24    23     1     0     0
SMALL
USER_CHARGES

@<TRIPOS>ATOM
      1 C1          0.4086   -1.0630   -0.1228 CT        1 <0>       -0.09141
      2 C2         -5.7162   -3.2473    1.4886 CT        1 <0>       -0.10773
      3 C3         -6.1373   -4.1233   -0.8367 CT        1 <0>       -0.10773
      4 C4         -0.5745   -2.0349    0.5099 CT        1 <0>       -0.08039
      5 C5         -1.9307   -1.9925   -0.1885 CT        1 <0>       -0.08331
      6 C6         -2.9047   -2.9950    0.4140 CT        1 <0>        0.13116
      7 C7         -5.0930   -3.8319    0.2302 CT        1 <0>        0.13940
      8 O1         -4.1377   -2.9159   -0.2877 OS        1 <0>       -0.42301
      9 H1          0.0248   -0.0384   -0.0880 HC        1 <0>        0.03426
     10 H2          1.3724   -1.0868    0.3957 HC        1 <0>        0.03426
     11 H3          0.5802   -1.3260   -1.1712 HC        1 <0>        0.03426
     12 H4         -6.2578   -2.3218    1.2704 HC        1 <0>        0.04272
     13 H5         -6.4134   -3.9634    1.9366 HC        1 <0>        0.04272
     14 H6         -4.9528   -3.0364    2.2456 HC        1 <0>        0.04272
     15 H7         -6.6889   -3.2187   -1.1103 HC        1 <0>        0.04272
     16 H8         -6.8504   -4.8729   -0.4773 HC        1 <0>        0.04272
     17 H9         -5.6738   -4.5374   -1.7390 HC        1 <0>        0.04272
     18 H10        -0.1609   -3.0488    0.4588 HC        1 <0>        0.03780
     19 H11        -0.6936   -1.7861    1.5708 HC        1 <0>        0.03780
     20 H12        -2.3601   -0.9850   -0.1238 HC        1 <0>        0.05427
     21 H13        -1.8129   -2.1993   -1.2596 HC        1 <0>        0.05427
     22 H14        -2.5190   -4.0157    0.3261 H1        1 <0>        0.02313
     23 H15        -3.0903   -2.7735    1.4699 H1        1 <0>        0.02313
     24 H16        -4.5598   -4.7547    0.4814 H1        1 <0>        0.03352
@<TRIPOS>BOND
     1    1    4 1
     2    2    7 1
     3    3    7 1
     4    4    5 1
     5    5    6 1
     6    6    8 1
     7    7    8 1
     8    1    9 1
     9    1   10 1
    10    1   11 1
    11    2   12 1
    12    2   13 1
    13    2   14 1
    14    3   15 1
    15    3   16 1
    16    3   17 1
    17    4   18 1
    18    4   19 1
    19    5   20 1
    20    5   21 1
    21    6   22 1
    22    6   23 1
    23    7   24 1
@<TRIPOS>SUBSTRUCTURE
     1 <0>         1 GROUP 0 A     ****
