@<TRIPOS>MOLECULE
AlkEthOH_r367
   35    35     1     0     0
SMALL
USER_CHARGES

@<TRIPOS>ATOM
      1 C1         -2.0575    0.7164   -0.9169 CT        1 <0>       -0.08060
      2 C2         -1.9397    1.9431   -0.0171 CT        1 <0>       -0.06763
      3 C3         -2.3054   -0.6147   -0.2045 CT        1 <0>       -0.06475
      4 C4         -0.7316    2.0349    0.9124 CT        1 <0>       -0.07532
      5 C5         -1.1263   -1.3026    0.5003 CT        1 <0>       -0.09694
      6 C6          0.6408    1.9816    0.2234 CT        1 <0>       -0.11834
      7 C7          0.1693   -1.5037   -0.3171 CT        1 <0>        0.19122
      8 C8          1.3676    0.6192    0.2819 CT        1 <0>        0.36506
      9 C9          1.1417   -2.4373    0.4271 CT        1 <0>       -0.10342
     10 C10        -0.1466   -2.1897   -1.6620 CT        1 <0>       -0.10342
     11 C11         2.8154    0.8236   -0.1883 CT        1 <0>       -0.12958
     12 O1          0.7803   -0.2634   -0.6791 OS        1 <0>       -0.43714
     13 O2          1.3920    0.1925    1.6399 OH        1 <0>       -0.61645
     14 H1         -2.9313    0.8912   -1.5605 HC        1 <0>        0.04783
     15 H2         -1.2149    0.6619   -1.6095 HC        1 <0>        0.04783
     16 H3         -1.9367    2.8307   -0.6638 HC        1 <0>        0.03220
     17 H4         -2.8491    2.0240    0.5920 HC        1 <0>        0.03220
     18 H5         -3.1131   -0.4826    0.5270 HC        1 <0>        0.03159
     19 H6         -2.7050   -1.3168   -0.9480 HC        1 <0>        0.03159
     20 H7         -0.8050    3.0143    1.4061 HC        1 <0>        0.04324
     21 H8         -0.8131    1.3117    1.7265 HC        1 <0>        0.04324
     22 H9         -0.9091   -0.7652    1.4256 HC        1 <0>        0.05123
     23 H10        -1.4863   -2.2889    0.8258 HC        1 <0>        0.05123
     24 H11         0.5531    2.3268   -0.8140 HC        1 <0>        0.05247
     25 H12         1.2697    2.7130    0.7502 HC        1 <0>        0.05247
     26 H13         2.0409   -2.5619   -0.1663 HC        1 <0>        0.04374
     27 H14         0.6661   -3.4003    0.5781 HC        1 <0>        0.04374
     28 H15         1.3935   -1.9984    1.3865 HC        1 <0>        0.04374
     29 H16         0.7747   -2.3205   -2.2176 HC        1 <0>        0.04374
     30 H17        -0.8311   -1.5662   -2.2251 HC        1 <0>        0.04374
     31 H18        -0.6007   -3.1546   -1.4691 HC        1 <0>        0.04374
     32 H19         3.3429   -0.1249   -0.1540 HC        1 <0>        0.04820
     33 H20         3.3089    1.5376    0.4642 HC        1 <0>        0.04820
     34 H21         2.8138    1.2020   -1.2062 HC        1 <0>        0.04820
     35 H22         1.8717    0.8740    2.1366 HO        1 <0>        0.41315
@<TRIPOS>BOND
     1    1    2 1
     2    1    3 1
     3    2    4 1
     4    3    5 1
     5    4    6 1
     6    5    7 1
     7    6    8 1
     8    7    9 1
     9    7   10 1
    10    7   12 1
    11    8   11 1
    12    8   12 1
    13    8   13 1
    14    1   14 1
    15    1   15 1
    16    2   16 1
    17    2   17 1
    18    3   18 1
    19    3   19 1
    20    4   20 1
    21    4   21 1
    22    5   22 1
    23    5   23 1
    24    6   24 1
    25    6   25 1
    26    9   26 1
    27    9   27 1
    28    9   28 1
    29   10   29 1
    30   10   30 1
    31   10   31 1
    32   11   32 1
    33   11   33 1
    34   11   34 1
    35   13   35 1
@<TRIPOS>SUBSTRUCTURE
     1 <0>         1 GROUP 0 A     ****
