@<TRIPOS>MOLECULE
AlkEthOH_r1107
   24    24     1     0     0
SMALL
USER_CHARGES

@<TRIPOS>ATOM
      1 C1          1.4010   -0.1255    1.8204 CT        1 <0>       -0.09597
      2 C2          0.1355   -0.9854    1.8034 CT        1 <0>        0.13588
      3 C3          1.6332    0.6341    0.5128 CT        1 <0>        0.13297
      4 C4         -0.3887   -0.1414   -1.6007 CT        1 <0>        0.10283
      5 C5         -1.0579   -1.8453   -0.0712 CT        1 <0>        0.32473
      6 C6          0.0808    1.2693   -1.2130 CT        1 <0>        0.13674
      7 C7         -1.0356    2.2901   -1.4166 CT        1 <0>       -0.09006
      8 O1          0.1630   -1.8497    0.6705 OS        1 <0>       -0.45911
      9 O2         -1.3793   -0.5893   -0.6739 OS        1 <0>       -0.43936
     10 O3          0.4480    1.3431    0.1681 OS        1 <0>       -0.41464
     11 H1          1.3187    0.5871    2.6496 HC        1 <0>        0.05258
     12 H2          2.2764   -0.7568    2.0121 HC        1 <0>        0.05258
     13 H3          0.1002   -1.6082    2.7035 H1        1 <0>        0.04768
     14 H4         -0.7559   -0.3463    1.8124 H1        1 <0>        0.04768
     15 H5          2.4382    1.3640    0.6477 H1        1 <0>        0.03652
     16 H6          1.9530   -0.0566   -0.2740 H1        1 <0>        0.03652
     17 H7         -0.8403   -0.1302   -2.5987 H1        1 <0>        0.04553
     18 H8          0.4582   -0.8346   -1.6450 H1        1 <0>        0.04553
     19 H9         -0.9851   -2.6080   -0.8543 H2        1 <0>        0.06227
     20 H10        -1.8840   -2.1321    0.5887 H2        1 <0>        0.06227
     21 H11         0.9366    1.5628   -1.8333 H1        1 <0>        0.03322
     22 H12        -1.8988    2.0204   -0.8098 HC        1 <0>        0.04787
     23 H13        -1.3302    2.3120   -2.4648 HC        1 <0>        0.04787
     24 H14        -0.6896    3.2802   -1.1232 HC        1 <0>        0.04787
@<TRIPOS>BOND
     1    1    2 1
     2    1    3 1
     3    2    8 1
     4    3   10 1
     5    4    6 1
     6    4    9 1
     7    5    8 1
     8    5    9 1
     9    6    7 1
    10    6   10 1
    11    1   11 1
    12    1   12 1
    13    2   13 1
    14    2   14 1
    15    3   15 1
    16    3   16 1
    17    4   17 1
    18    4   18 1
    19    5   19 1
    20    5   20 1
    21    6   21 1
    22    7   22 1
    23    7   23 1
    24    7   24 1
@<TRIPOS>SUBSTRUCTURE
     1 <0>         1 GROUP 0 A     ****
