@<TRIPOS>MOLECULE
AlkEthOH_c507
   34    33     1     0     0
SMALL
USER_CHARGES

@<TRIPOS>ATOM
      1 C1          0.5256    1.0182   -3.1943 CT        1 <0>       -0.10566
      2 C2         -0.3806    0.8417   -0.8492 CT        1 <0>       -0.10566
      3 C3          0.0063   -5.0184   -1.4757 CT        1 <0>       -0.12557
      4 C4         -0.6314   -4.1477    0.7740 CT        1 <0>       -0.12557
      5 C5         -2.0732   -2.7519   -3.1285 CT        1 <0>       -0.09862
      6 C6          0.3580   -2.3295   -3.5315 CT        1 <0>       -0.09862
      7 C7         -0.5721   -2.5220   -1.1323 CT        1 <0>       -0.09178
      8 C8          0.0292    0.0829   -2.1023 CT        1 <0>        0.13612
      9 C9         -0.8572   -3.9933   -0.7377 CT        1 <0>        0.15785
     10 C10        -0.8139   -2.0559   -2.5894 CT        1 <0>        0.16604
     11 O1         -2.2401   -4.2850   -0.9508 OH        1 <0>       -0.59271
     12 O2         -1.0824   -0.6527   -2.5874 OS        1 <0>       -0.42630
     13 H1         -0.2391    1.7519   -3.4668 HC        1 <0>        0.04056
     14 H2          1.4208    1.5534   -2.8597 HC        1 <0>        0.04056
     15 H3          0.8111    0.4595   -4.0925 HC        1 <0>        0.04056
     16 H4         -1.1669    1.5712   -1.0658 HC        1 <0>        0.04056
     17 H5          0.4800    1.3701   -0.4252 HC        1 <0>        0.04056
     18 H6         -0.7419    0.1567   -0.0743 HC        1 <0>        0.04056
     19 H7         -0.1339   -4.9322   -2.5597 HC        1 <0>        0.04275
     20 H8         -0.2428   -6.0422   -1.1790 HC        1 <0>        0.04275
     21 H9          1.0737   -4.8494   -1.3036 HC        1 <0>        0.04275
     22 H10        -1.2364   -3.4265    1.3358 HC        1 <0>        0.04275
     23 H11         0.4200   -4.0029    1.0432 HC        1 <0>        0.04275
     24 H12        -0.9426   -5.1416    1.1165 HC        1 <0>        0.04275
     25 H13        -2.9383   -2.5798   -2.4798 HC        1 <0>        0.04459
     26 H14        -2.3158   -2.3935   -4.1357 HC        1 <0>        0.04459
     27 H15        -1.9177   -3.8334   -3.2174 HC        1 <0>        0.04459
     28 H16         1.2703   -1.8419   -3.1669 HC        1 <0>        0.04459
     29 H17         0.1588   -1.9606   -4.5424 HC        1 <0>        0.04459
     30 H18         0.5991   -3.3953   -3.5759 HC        1 <0>        0.04459
     31 H19         0.4823   -2.3186   -0.8962 HC        1 <0>        0.05516
     32 H20        -1.1761   -1.8802   -0.4750 HC        1 <0>        0.05516
     33 H21         0.8153   -0.6372   -1.8528 H1        1 <0>        0.03663
     34 H22        -2.3871   -5.1764   -0.6015 HO        1 <0>        0.39613
@<TRIPOS>BOND
     1    1    8 1
     2    2    8 1
     3    3    9 1
     4    4    9 1
     5    5   10 1
     6    6   10 1
     7    7    9 1
     8    7   10 1
     9    8   12 1
    10    9   11 1
    11   10   12 1
    12    1   13 1
    13    1   14 1
    14    1   15 1
    15    2   16 1
    16    2   17 1
    17    2   18 1
    18    3   19 1
    19    3   20 1
    20    3   21 1
    21    4   22 1
    22    4   23 1
    23    4   24 1
    24    5   25 1
    25    5   26 1
    26    5   27 1
    27    6   28 1
    28    6   29 1
    29    6   30 1
    30    7   31 1
    31    7   32 1
    32    8   33 1
    33   11   34 1
@<TRIPOS>SUBSTRUCTURE
     1 <0>         1 GROUP 0 A     ****
