@<TRIPOS>MOLECULE
AlkEthOH_c684
   23    22     1     0     0
SMALL
USER_CHARGES

@<TRIPOS>ATOM
      1 C1          0.6933    0.0557    0.7801 CT        1 <0>       -0.13008
      2 C2          2.5603   -4.5132   -0.2742 CT        1 <0>       -0.11704
      3 C3          1.6510   -2.2282    0.3040 CT        1 <0>       -0.10419
      4 C4          2.9367   -5.9193    0.1856 CT        1 <0>        0.13389
      5 C5          1.0902   -1.2875    1.3790 CT        1 <0>        0.14019
      6 C6          2.0326   -3.6126    0.8535 CT        1 <0>        0.13817
      7 O1          3.4331   -6.6719   -0.9113 OH        1 <0>       -0.60656
      8 O2         -0.0614   -1.8860    1.9671 OH        1 <0>       -0.59994
      9 O3          3.0424   -3.4406    1.8445 OH        1 <0>       -0.59624
     10 H1         -0.0475   -0.0667   -0.0156 HC        1 <0>        0.04265
     11 H2          0.2806    0.7206    1.5470 HC        1 <0>        0.04265
     12 H3          1.5699    0.5633    0.3634 HC        1 <0>        0.04265
     13 H4          3.4476   -4.0549   -0.7274 HC        1 <0>        0.05763
     14 H5          1.7884   -4.5935   -1.0493 HC        1 <0>        0.05763
     15 H6          2.5362   -1.7591   -0.1439 HC        1 <0>        0.05349
     16 H7          0.9023   -2.3601   -0.4873 HC        1 <0>        0.05349
     17 H8          3.7220   -5.8622    0.9463 H1        1 <0>        0.02955
     18 H9          2.0789   -6.4439    0.6168 H1        1 <0>        0.02955
     19 H10         1.8309   -1.1280    2.1701 H1        1 <0>        0.04287
     20 H11         1.1603   -4.0727    1.3309 H1        1 <0>        0.09707
     21 H12         3.6572   -7.5530   -0.5697 HO        1 <0>        0.40007
     22 H13        -0.3716   -1.2740    2.6526 HO        1 <0>        0.40010
     23 H14         3.7986   -3.0276    1.3995 HO        1 <0>        0.39240
@<TRIPOS>BOND
     1    1    5 1
     2    2    4 1
     3    2    6 1
     4    3    5 1
     5    3    6 1
     6    4    7 1
     7    5    8 1
     8    6    9 1
     9    1   10 1
    10    1   11 1
    11    1   12 1
    12    2   13 1
    13    2   14 1
    14    3   15 1
    15    3   16 1
    16    4   17 1
    17    4   18 1
    18    5   19 1
    19    6   20 1
    20    7   21 1
    21    8   22 1
    22    9   23 1
@<TRIPOS>SUBSTRUCTURE
     1 <0>         1 GROUP 0 A     ****
