@<TRIPOS>MOLECULE
AlkEthOH_c49
   30    29     1     0     0
SMALL
USER_CHARGES

@<TRIPOS>ATOM
      1 C1         -1.6284   -1.4646   -1.8601 CT        1 <0>       -0.13255
      2 C2          0.9232   -0.7059    1.8678 CT        1 <0>       -0.08726
      3 C3          2.1884    0.2357   -0.0536 CT        1 <0>       -0.08726
      4 C4          0.9242    1.7439    1.4523 CT        1 <0>       -0.08726
      5 C5         -1.7319    0.3153    0.6614 CT        1 <0>       -0.09236
      6 C6         -0.4908    1.3195   -1.2464 CT        1 <0>       -0.09236
      7 C7         -0.4422   -1.2069   -0.9266 CT        1 <0>        0.14605
      8 C8          0.8684    0.3664    0.7505 CT        1 <0>       -0.03564
      9 C9         -0.4367    0.1872   -0.1856 CT        1 <0>       -0.02141
     10 O1         -0.4333   -2.2724    0.0271 OH        1 <0>       -0.60025
     11 H1         -2.5837   -1.3841   -1.3330 HC        1 <0>        0.04245
     12 H2         -1.6337   -0.7850   -2.7165 HC        1 <0>        0.04245
     13 H3         -1.5838   -2.4870   -2.2531 HC        1 <0>        0.04245
     14 H4          0.0280   -0.6937    2.4956 HC        1 <0>        0.03465
     15 H5          1.7796   -0.5354    2.5320 HC        1 <0>        0.03465
     16 H6          1.0407   -1.7148    1.4595 HC        1 <0>        0.03465
     17 H7          2.2237    0.9685   -0.8693 HC        1 <0>        0.03465
     18 H8          3.0718    0.4130    0.5656 HC        1 <0>        0.03465
     19 H9          2.2859   -0.7509   -0.5176 HC        1 <0>        0.03465
     20 H10         0.8905    2.5707    0.7369 HC        1 <0>        0.03465
     21 H11         1.8541    1.8557    2.0236 HC        1 <0>        0.03465
     22 H12         0.1084    1.8682    2.1711 HC        1 <0>        0.03465
     23 H13        -1.7915   -0.4449    1.4455 HC        1 <0>        0.03771
     24 H14        -1.8049    1.2975    1.1403 HC        1 <0>        0.03771
     25 H15        -2.6287    0.2131    0.0414 HC        1 <0>        0.03771
     26 H16         0.3931    1.3041   -1.8945 HC        1 <0>        0.03771
     27 H17        -0.5339    2.3084   -0.7782 HC        1 <0>        0.03771
     28 H18        -1.3527    1.2227   -1.9121 HC        1 <0>        0.03771
     29 H19         0.4678   -1.3055   -1.5263 H1        1 <0>        0.03064
     30 H20        -0.3307   -3.0905   -0.4808 HO        1 <0>        0.39420
@<TRIPOS>BOND
     1    1    7 1
     2    2    8 1
     3    3    8 1
     4    4    8 1
     5    5    9 1
     6    6    9 1
     7    7    9 1
     8    7   10 1
     9    8    9 1
    10    1   11 1
    11    1   12 1
    12    1   13 1
    13    2   14 1
    14    2   15 1
    15    2   16 1
    16    3   17 1
    17    3   18 1
    18    3   19 1
    19    4   20 1
    20    4   21 1
    21    4   22 1
    22    5   23 1
    23    5   24 1
    24    5   25 1
    25    6   26 1
    26    6   27 1
    27    6   28 1
    28    7   29 1
    29   10   30 1
@<TRIPOS>SUBSTRUCTURE
     1 <0>         1 GROUP 0 A     ****
