@<TRIPOS>MOLECULE
AlkEthOH_c742
   19    18     1     0     0
SMALL
USER_CHARGES

@<TRIPOS>ATOM
      1 C1         -1.0094   -0.3889   -0.1718 CT        1 <0>       -0.08781
      2 C2         -1.1514   -1.1433    2.2130 CT        1 <0>       -0.08017
      3 C3         -1.8560   -1.0772    3.5627 CT        1 <0>        0.13262
      4 C4         -3.2855   -0.7635    0.8358 CT        1 <0>        0.13124
      5 C5         -1.8434   -0.3185    1.1125 CT        1 <0>       -0.06009
      6 O1         -1.1215   -1.8557    4.4990 OH        1 <0>       -0.60053
      7 O2         -3.3181   -2.0993    0.3535 OH        1 <0>       -0.59599
      8 H1         -0.9460   -1.4191   -0.5379 HC        1 <0>        0.03977
      9 H2         -1.4647    0.2163   -0.9630 HC        1 <0>        0.03977
     10 H3          0.0100   -0.0217   -0.0116 HC        1 <0>        0.03977
     11 H4         -1.0540   -2.1934    1.9084 HC        1 <0>        0.06368
     12 H5         -0.1209   -0.7858    2.3419 HC        1 <0>        0.06368
     13 H6         -1.9025   -0.0468    3.9290 H1        1 <0>        0.01854
     14 H7         -2.8692   -1.4847    3.5052 H1        1 <0>        0.01854
     15 H8         -3.7473   -0.1146    0.0835 H1        1 <0>        0.01870
     16 H9         -3.8946   -0.7066    1.7430 H1        1 <0>        0.01870
     17 H10        -1.8722    0.7314    1.4313 HC        1 <0>        0.04477
     18 H11        -1.5934   -1.7938    5.3449 HO        1 <0>        0.39668
     19 H12        -4.2512   -2.3193    0.1989 HO        1 <0>        0.39813
@<TRIPOS>BOND
     1    1    5 1
     2    2    3 1
     3    2    5 1
     4    3    6 1
     5    4    5 1
     6    4    7 1
     7    1    8 1
     8    1    9 1
     9    1   10 1
    10    2   11 1
    11    2   12 1
    12    3   13 1
    13    3   14 1
    14    4   15 1
    15    4   16 1
    16    5   17 1
    17    6   18 1
    18    7   19 1
@<TRIPOS>SUBSTRUCTURE
     1 <0>         1 GROUP 0 A     ****
