@<TRIPOS>MOLECULE
AlkEthOH_c416
   33    32     1     0     0
SMALL
USER_CHARGES

@<TRIPOS>ATOM
      1 C1         -1.5529   -1.2369   -2.3386 CT        1 <0>       -0.09051
      2 C2          0.2779   -2.8455   -1.7739 CT        1 <0>       -0.09051
      3 C3          1.2143    2.0092   -0.8962 CT        1 <0>       -0.08789
      4 C4         -1.9687    3.1022    0.1037 CT        1 <0>       -0.12401
      5 C5         -1.9691    2.1858    2.4223 CT        1 <0>       -0.12401
      6 C6          0.6153   -0.4058   -1.2772 CT        1 <0>       -0.07255
      7 C7         -0.6664    0.9990    0.5342 CT        1 <0>       -0.05917
      8 C8         -0.4196   -1.5459   -1.3597 CT        1 <0>       -0.06712
      9 C9          0.0896    0.9731   -0.8183 CT        1 <0>       -0.05599
     10 C10        -1.1416    2.3380    1.1494 CT        1 <0>        0.15127
     11 O1         -0.0155    3.1573    1.4701 OH        1 <0>       -0.59757
     12 H1         -1.1712   -1.0574   -3.3482 HC        1 <0>        0.03267
     13 H2         -2.2714   -2.0621   -2.3872 HC        1 <0>        0.03267
     14 H3         -2.0948   -0.3354   -2.0328 HC        1 <0>        0.03267
     15 H4          0.7370   -2.7425   -2.7628 HC        1 <0>        0.03267
     16 H5          1.0641   -3.1202   -1.0624 HC        1 <0>        0.03267
     17 H6         -0.4386   -3.6723   -1.8247 HC        1 <0>        0.03267
     18 H7          2.0067    1.7824   -0.1755 HC        1 <0>        0.03745
     19 H8          1.6545    2.0591   -1.8965 HC        1 <0>        0.03745
     20 H9          0.8318    3.0080   -0.6581 HC        1 <0>        0.03745
     21 H10        -1.4132    3.2357   -0.8303 HC        1 <0>        0.04178
     22 H11        -2.9030    2.5740   -0.1195 HC        1 <0>        0.04178
     23 H12        -2.2580    4.0906    0.4792 HC        1 <0>        0.04178
     24 H13        -1.4180    1.6458    3.1971 HC        1 <0>        0.04178
     25 H14        -2.9212    1.6816    2.2316 HC        1 <0>        0.04178
     26 H15        -2.1894    3.1672    2.8601 HC        1 <0>        0.04178
     27 H16         1.4401   -0.7235   -0.6318 HC        1 <0>        0.03981
     28 H17         1.0653   -0.2795   -2.2725 HC        1 <0>        0.03981
     29 H18        -0.0766    0.4546    1.2806 HC        1 <0>        0.04876
     30 H19        -1.5660    0.3842    0.3796 HC        1 <0>        0.04876
     31 H20        -0.8542   -1.7167   -0.3687 HC        1 <0>        0.04473
     32 H21        -0.6480    1.2851   -1.5710 HC        1 <0>        0.04263
     33 H22        -0.3730    3.9859    1.8220 HO        1 <0>        0.39451
@<TRIPOS>BOND
     1    1    8 1
     2    2    8 1
     3    3    9 1
     4    4   10 1
     5    5   10 1
     6    6    8 1
     7    6    9 1
     8    7    9 1
     9    7   10 1
    10   10   11 1
    11    1   12 1
    12    1   13 1
    13    1   14 1
    14    2   15 1
    15    2   16 1
    16    2   17 1
    17    3   18 1
    18    3   19 1
    19    3   20 1
    20    4   21 1
    21    4   22 1
    22    4   23 1
    23    5   24 1
    24    5   25 1
    25    5   26 1
    26    6   27 1
    27    6   28 1
    28    7   29 1
    29    7   30 1
    30    8   31 1
    31    9   32 1
    32   11   33 1
@<TRIPOS>SUBSTRUCTURE
     1 <0>         1 GROUP 0 A     ****
