@<TRIPOS>MOLECULE
AlkEthOH_r1031
   20    20     1     0     0
SMALL
USER_CHARGES

@<TRIPOS>ATOM
      1 C1         -1.1847    0.7238    0.1583 CT        1 <0>       -0.14277
      2 C2         -1.6796   -0.7213    0.0718 CT        1 <0>        0.12936
      3 C3          0.2378   -1.4093   -1.1867 CT        1 <0>        0.09265
      4 C4          1.4493   -0.7126   -0.5887 CT        1 <0>        0.10223
      5 C5          0.2228    0.8732    0.7399 CT        1 <0>        0.14397
      6 C6          0.4383    2.3009    1.2344 CT        1 <0>       -0.09398
      7 O1         -0.6830   -1.7099   -0.1457 OS        1 <0>       -0.42065
      8 O2          1.1990    0.6552   -0.2834 OS        1 <0>       -0.42142
      9 H1         -1.1972    1.1513   -0.8530 HC        1 <0>        0.05709
     10 H2         -1.9170    1.2923    0.7445 HC        1 <0>        0.05709
     11 H3         -2.1702   -0.9842    1.0159 H1        1 <0>        0.04421
     12 H4         -2.4435   -0.8095   -0.7095 H1        1 <0>        0.04421
     13 H5         -0.2371   -0.8242   -1.9823 H1        1 <0>        0.05588
     14 H6          0.5539   -2.3672   -1.6115 H1        1 <0>        0.05588
     15 H7          1.8003   -1.2226    0.3156 H1        1 <0>        0.05585
     16 H8          2.2655   -0.7235   -1.3184 H1        1 <0>        0.05585
     17 H9          0.3887    0.1875    1.5799 H1        1 <0>        0.05057
     18 H10         0.2794    3.0036    0.4176 HC        1 <0>        0.04466
     19 H11         1.4552    2.4137    1.6079 HC        1 <0>        0.04466
     20 H12        -0.2627    2.5242    2.0376 HC        1 <0>        0.04466
@<TRIPOS>BOND
     1    1    2 1
     2    1    5 1
     3    2    7 1
     4    3    4 1
     5    3    7 1
     6    4    8 1
     7    5    6 1
     8    5    8 1
     9    1    9 1
    10    1   10 1
    11    2   11 1
    12    2   12 1
    13    3   13 1
    14    3   14 1
    15    4   15 1
    16    4   16 1
    17    5   17 1
    18    6   18 1
    19    6   19 1
    20    6   20 1
@<TRIPOS>SUBSTRUCTURE
     1 <0>         1 GROUP 0 A     ****
