@<TRIPOS>MOLECULE
AlkEthOH_c488
   12    11     1     0     0
SMALL
USER_CHARGES

@<TRIPOS>ATOM
      1 C1          1.0765    0.0499    0.1958 CT        1 <0>       -0.12783
      2 C2          2.8427    1.0382    1.6976 CT        1 <0>       -0.12783
      3 C3          1.3532    0.9191    1.4130 CT        1 <0>        0.13478
      4 O1          0.8123    2.2184    1.1940 OH        1 <0>       -0.59980
      5 H1          1.5701    0.4471   -0.6963 HC        1 <0>        0.04203
      6 H2          1.4331   -0.9713    0.3679 HC        1 <0>        0.04203
      7 H3          0.0011   -0.0220   -0.0013 HC        1 <0>        0.04203
      8 H4          3.3785    1.4589    0.8413 HC        1 <0>        0.04203
      9 H5          3.2667    0.0547    1.9270 HC        1 <0>        0.04203
     10 H6          3.0274    1.6718    2.5721 HC        1 <0>        0.04203
     11 H7          0.8468    0.4961    2.2868 H1        1 <0>        0.07365
     12 H8          1.2532    2.5729    0.4061 HO        1 <0>        0.39485
@<TRIPOS>BOND
     1    1    3 1
     2    2    3 1
     3    3    4 1
     4    1    5 1
     5    1    6 1
     6    1    7 1
     7    2    8 1
     8    2    9 1
     9    2   10 1
    10    3   11 1
    11    4   12 1
@<TRIPOS>SUBSTRUCTURE
     1 <0>         1 GROUP 0 A     ****
