@<TRIPOS>MOLECULE
AlkEthOH_c635
   34    33     1     0     0
SMALL
USER_CHARGES

@<TRIPOS>ATOM
      1 C1         -1.7663    3.5801    0.8920 CT        1 <0>       -0.12632
      2 C2         -0.9386   -2.9091   -1.0204 CT        1 <0>       -0.08908
      3 C3          1.3241   -1.9062   -1.3035 CT        1 <0>       -0.08908
      4 C4         -0.5855   -0.9647   -2.5739 CT        1 <0>       -0.08908
      5 C5          1.8094    0.0706    1.1554 CT        1 <0>       -0.12475
      6 C6         -0.0386    1.7386    0.9720 CT        1 <0>       -0.11610
      7 C7         -0.3849   -0.5864   -0.0366 CT        1 <0>       -0.05591
      8 C8         -0.8314    2.7001    0.0696 CT        1 <0>        0.14196
      9 C9         -0.1888   -1.5849   -1.2221 CT        1 <0>       -0.03750
     10 C10         0.6491    0.5304    0.2675 CT        1 <0>        0.16628
     11 O1          0.0447    3.5436   -0.6694 OH        1 <0>       -0.61353
     12 O2          1.2050    0.9853   -0.9685 OH        1 <0>       -0.60035
     13 H1         -1.2079    4.1659    1.6305 HC        1 <0>        0.04288
     14 H2         -2.2803    4.2990    0.2447 HC        1 <0>        0.04288
     15 H3         -2.5184    2.9816    1.4148 HC        1 <0>        0.04288
     16 H4         -2.0198   -2.7452   -0.9551 HC        1 <0>        0.03544
     17 H5         -0.6247   -3.4009   -0.0921 HC        1 <0>        0.03544
     18 H6         -0.7485   -3.6158   -1.8332 HC        1 <0>        0.03544
     19 H7          1.9167   -0.9956   -1.4481 HC        1 <0>        0.03544
     20 H8          1.5398   -2.5828   -2.1383 HC        1 <0>        0.03544
     21 H9          1.6807   -2.3868   -0.3851 HC        1 <0>        0.03544
     22 H10        -0.0605   -0.0162   -2.7386 HC        1 <0>        0.03544
     23 H11        -0.3352   -1.6049   -3.4214 HC        1 <0>        0.03544
     24 H12        -1.6601   -0.7550   -2.6137 HC        1 <0>        0.03544
     25 H13         2.3402   -0.7798    0.7195 HC        1 <0>        0.04194
     26 H14         2.5663    0.8594    1.2449 HC        1 <0>        0.04194
     27 H15         1.4705   -0.1842    2.1643 HC        1 <0>        0.04194
     28 H16        -0.7068    1.3625    1.7578 HC        1 <0>        0.05767
     29 H17         0.7453    2.3273    1.4690 HC        1 <0>        0.05767
     30 H18        -0.5364   -1.1756    0.8787 HC        1 <0>        0.03906
     31 H19        -1.3392   -0.0786   -0.2332 HC        1 <0>        0.03906
     32 H20        -1.4358    2.1388   -0.6493 H1        1 <0>        0.04531
     33 H21        -0.5147    4.0944   -1.2398 HO        1 <0>        0.40359
     34 H22         1.8007    1.7159   -0.7461 HO        1 <0>        0.41768
@<TRIPOS>BOND
     1    1    8 1
     2    2    9 1
     3    3    9 1
     4    4    9 1
     5    5   10 1
     6    6    8 1
     7    6   10 1
     8    7    9 1
     9    7   10 1
    10    8   11 1
    11   10   12 1
    12    1   13 1
    13    1   14 1
    14    1   15 1
    15    2   16 1
    16    2   17 1
    17    2   18 1
    18    3   19 1
    19    3   20 1
    20    3   21 1
    21    4   22 1
    22    4   23 1
    23    4   24 1
    24    5   25 1
    25    5   26 1
    26    5   27 1
    27    6   28 1
    28    6   29 1
    29    7   30 1
    30    7   31 1
    31    8   32 1
    32   11   33 1
    33   12   34 1
@<TRIPOS>SUBSTRUCTURE
     1 <0>         1 GROUP 0 A     ****
