@<TRIPOS>MOLECULE
AlkEthOH_r811
   14    14     1     0     0
SMALL
USER_CHARGES

@<TRIPOS>ATOM
      1 C1         -0.4100    0.7488   -0.7955 CT        1 <0>       -0.12486
      2 C2          0.0481   -0.7120   -0.8455 CT        1 <0>        0.13179
      3 C3         -0.7772    0.4437    0.6577 CT        1 <0>        0.31231
      4 C4          1.4835   -0.9645   -1.2561 CT        1 <0>       -0.10271
      5 O1         -0.1129   -0.8446    0.5902 OS        1 <0>       -0.45764
      6 O2         -0.2317    1.3287    1.6492 OH        1 <0>       -0.59996
      7 H1          0.3786    1.4960   -0.9226 HC        1 <0>        0.07315
      8 H2         -1.2551    0.9923   -1.4443 HC        1 <0>        0.07315
      9 H3         -0.6546   -1.3733   -1.3674 H1        1 <0>        0.06091
     10 H4         -1.8528    0.3044    0.8184 H2        1 <0>        0.06562
     11 H5          2.1584   -0.2917   -0.7202 HC        1 <0>        0.04894
     12 H6          1.6090   -0.7979   -2.3293 HC        1 <0>        0.04894
     13 H7          1.7702   -1.9950   -1.0297 HC        1 <0>        0.04894
     14 H8         -0.5537    1.0032    2.5004 HO        1 <0>        0.42142
@<TRIPOS>BOND
     1    1    2 1
     2    1    3 1
     3    2    4 1
     4    2    5 1
     5    3    5 1
     6    3    6 1
     7    1    7 1
     8    1    8 1
     9    2    9 1
    10    3   10 1
    11    4   11 1
    12    4   12 1
    13    4   13 1
    14    6   14 1
@<TRIPOS>SUBSTRUCTURE
     1 <0>         1 GROUP 0 A     ****
