@<TRIPOS>MOLECULE
AlkEthOH_r607
   17    17     1     0     0
SMALL
USER_CHARGES

@<TRIPOS>ATOM
      1 C1          0.0178    1.3646   -0.5480 CT        1 <0>        0.12005
      2 C2         -0.8075   -0.2001    0.5134 CT        1 <0>        0.31207
      3 C3          0.6380    0.0784    0.0335 CT        1 <0>       -0.08937
      4 C4          1.6455    0.3037    1.1523 CT        1 <0>       -0.08352
      5 C5          1.1702   -0.8711   -1.0364 CT        1 <0>       -0.08352
      6 O1         -1.3204    0.8337   -0.3720 OS        1 <0>       -0.45317
      7 O2         -1.3437   -1.5092    0.2573 OH        1 <0>       -0.58869
      8 H1          0.1541    2.2797    0.0379 H1        1 <0>        0.05785
      9 H2          0.2351    1.5734   -1.5996 H1        1 <0>        0.05785
     10 H3         -1.0030    0.0762    1.5566 H2        1 <0>        0.06204
     11 H4          2.0334   -0.6527    1.5045 HC        1 <0>        0.04540
     12 H5          1.1691    0.8197    1.9864 HC        1 <0>        0.04540
     13 H6          2.4768    0.9099    0.7907 HC        1 <0>        0.04540
     14 H7          1.5943   -1.7575   -0.5667 HC        1 <0>        0.04540
     15 H8          1.9430   -0.3740   -1.6211 HC        1 <0>        0.04540
     16 H9          0.3605   -1.1725   -1.6996 HC        1 <0>        0.04540
     17 H10        -2.2397   -1.5027    0.6192 HO        1 <0>        0.41601
@<TRIPOS>BOND
     1    1    3 1
     2    1    6 1
     3    2    3 1
     4    2    6 1
     5    2    7 1
     6    3    4 1
     7    3    5 1
     8    1    8 1
     9    1    9 1
    10    2   10 1
    11    4   11 1
    12    4   12 1
    13    4   13 1
    14    5   14 1
    15    5   15 1
    16    5   16 1
    17    7   17 1
@<TRIPOS>SUBSTRUCTURE
     1 <0>         1 GROUP 0 A     ****
