@<TRIPOS>MOLECULE
AlkEthOH_r266
   35    35     1     0     0
SMALL
USER_CHARGES

@<TRIPOS>ATOM
      1 C1          2.7242   -0.1157   -0.7415 CT        1 <0>       -0.08130
      2 C2          2.3545    1.3770   -0.6456 CT        1 <0>       -0.08130
      3 C3         -1.5283   -0.2555   -0.2300 CT        1 <0>       -0.11326
      4 C4          1.8109   -1.0444    0.0569 CT        1 <0>        0.13606
      5 C5          0.8619    1.6845   -0.7673 CT        1 <0>        0.13606
      6 C6         -0.6140   -1.5054   -0.0585 CT        1 <0>        0.16828
      7 C7         -1.1690    1.0944    0.4553 CT        1 <0>        0.16828
      8 C8         -0.5220   -2.0330    1.3776 CT        1 <0>       -0.10738
      9 C9         -1.2451   -2.6357   -0.9040 CT        1 <0>       -0.10738
     10 C10        -1.6055    1.0946    1.9304 CT        1 <0>       -0.10738
     11 C11        -1.9377    2.2425   -0.2312 CT        1 <0>       -0.10738
     12 O1          0.6335   -1.2502   -0.7106 OS        1 <0>       -0.42951
     13 O2          0.2366    1.3467    0.4687 OS        1 <0>       -0.42951
     14 H1          2.6980   -0.4241   -1.7841 HC        1 <0>        0.04751
     15 H2          3.7481   -0.2281   -0.3915 HC        1 <0>        0.04751
     16 H3          2.7348    1.7699    0.3051 HC        1 <0>        0.04751
     17 H4          2.8957    1.8989   -1.4434 HC        1 <0>        0.04751
     18 H5         -1.5918   -0.0504   -1.3110 HC        1 <0>        0.04942
     19 H6         -2.5600   -0.5285    0.0525 HC        1 <0>        0.04942
     20 H7          2.3357   -1.9658    0.2756 H1        1 <0>        0.03768
     21 H8          1.5392   -0.5669    0.9937 H1        1 <0>        0.03768
     22 H9          0.7247    2.7621   -0.9092 H1        1 <0>        0.03768
     23 H10         0.4229    1.1728   -1.6282 H1        1 <0>        0.03768
     24 H11         0.1322   -2.8998    1.4034 HC        1 <0>        0.04301
     25 H12        -1.5122   -2.3159    1.7231 HC        1 <0>        0.04301
     26 H13        -0.1208   -1.2568    2.0231 HC        1 <0>        0.04301
     27 H14        -0.6369   -3.5277   -0.8121 HC        1 <0>        0.04301
     28 H15        -1.2849   -2.3218   -1.9404 HC        1 <0>        0.04301
     29 H16        -2.2464   -2.8328   -0.5396 HC        1 <0>        0.04301
     30 H17        -1.3427    2.0460    2.3811 HC        1 <0>        0.04301
     31 H18        -1.0991    0.2902    2.4534 HC        1 <0>        0.04301
     32 H19        -2.6791    0.9481    1.9857 HC        1 <0>        0.04301
     33 H20        -1.6811    3.1773    0.2524 HC        1 <0>        0.04301
     34 H21        -3.0013    2.0590   -0.1396 HC        1 <0>        0.04301
     35 H22        -1.6575    2.2786   -1.2771 HC        1 <0>        0.04301
@<TRIPOS>BOND
     1    1    2 1
     2    1    4 1
     3    2    5 1
     4    3    6 1
     5    3    7 1
     6    4   12 1
     7    5   13 1
     8    6    8 1
     9    6    9 1
    10    6   12 1
    11    7   10 1
    12    7   11 1
    13    7   13 1
    14    1   14 1
    15    1   15 1
    16    2   16 1
    17    2   17 1
    18    3   18 1
    19    3   19 1
    20    4   20 1
    21    4   21 1
    22    5   22 1
    23    5   23 1
    24    8   24 1
    25    8   25 1
    26    8   26 1
    27    9   27 1
    28    9   28 1
    29    9   29 1
    30   10   30 1
    31   10   31 1
    32   10   32 1
    33   11   33 1
    34   11   34 1
    35   11   35 1
@<TRIPOS>SUBSTRUCTURE
     1 <0>         1 GROUP 0 A     ****
