@<TRIPOS>MOLECULE
AlkEthOH_c343
   22    21     1     0     0
SMALL
USER_CHARGES

@<TRIPOS>ATOM
      1 C1          0.7889   -0.0709   -0.8650 CT        1 <0>       -0.09202
      2 C2          1.7792   -2.0288    0.3300 CT        1 <0>       -0.09202
      3 C3         -1.9487   -2.7583   -4.5473 CT        1 <0>        0.11521
      4 C4         -0.6095   -2.0282   -2.7595 CT        1 <0>        0.09587
      5 C5          1.1843   -1.5448   -0.9971 CT        1 <0>       -0.10006
      6 C6          0.0121   -2.4506   -1.4287 CT        1 <0>        0.13966
      7 O1         -1.0030   -2.4334   -0.4239 OH        1 <0>       -0.58068
      8 O2         -1.3716   -3.1053   -3.2973 OS        1 <0>       -0.41059
      9 H1          0.0020    0.0507   -0.1125 HC        1 <0>        0.03779
     10 H2          0.4117    0.3326   -1.8103 HC        1 <0>        0.03779
     11 H3          1.6380    0.5413   -0.5465 HC        1 <0>        0.03779
     12 H4          1.0340   -1.9783    1.1309 HC        1 <0>        0.03779
     13 H5          2.6427   -1.4258    0.6300 HC        1 <0>        0.03779
     14 H6          2.1090   -3.0701    0.2491 HC        1 <0>        0.03779
     15 H7         -2.5247   -3.6039   -4.9310 H1        1 <0>        0.03256
     16 H8         -1.1580   -2.4920   -5.2533 H1        1 <0>        0.03256
     17 H9         -2.6125   -1.9020   -4.4069 H1        1 <0>        0.03256
     18 H10        -1.2979   -1.1876   -2.6314 H1        1 <0>        0.03006
     19 H11         0.1550   -1.7554   -3.4933 H1        1 <0>        0.03006
     20 H12         1.9716   -1.6173   -1.7585 HC        1 <0>        0.05257
     21 H13         0.3640   -3.4869   -1.5033 H1        1 <0>        0.09443
     22 H14        -1.3341   -1.5237   -0.3858 HO        1 <0>        0.39309
@<TRIPOS>BOND
     1    1    5 1
     2    2    5 1
     3    3    8 1
     4    4    6 1
     5    4    8 1
     6    5    6 1
     7    6    7 1
     8    1    9 1
     9    1   10 1
    10    1   11 1
    11    2   12 1
    12    2   13 1
    13    2   14 1
    14    3   15 1
    15    3   16 1
    16    3   17 1
    17    4   18 1
    18    4   19 1
    19    5   20 1
    20    6   21 1
    21    7   22 1
@<TRIPOS>SUBSTRUCTURE
     1 <0>         1 GROUP 0 A     ****
