@<TRIPOS>MOLECULE
AlkEthOH_c200
   27    26     1     0     0
SMALL
USER_CHARGES

@<TRIPOS>ATOM
      1 C1         -0.5342   -0.8457    2.0436 CT        1 <0>       -0.11215
      2 C2         -2.8269   -0.1938    1.2942 CT        1 <0>       -0.11215
      3 C3          0.6822    1.7021   -1.6835 CT        1 <0>       -0.13613
      4 C4         -0.8675    0.7421    0.0307 CT        1 <0>       -0.12353
      5 C5          2.0674   -1.0794   -1.3307 CT        1 <0>        0.33794
      6 C6         -1.3921   -0.4789    0.8324 CT        1 <0>        0.16923
      7 C7          0.5613    0.6550   -0.5667 CT        1 <0>        0.35343
      8 O1          2.6787   -1.6297   -0.1725 OH        1 <0>       -0.61611
      9 O2         -1.4689   -1.6206   -0.0247 OH        1 <0>       -0.59828
     10 O3          1.4837    0.9753    0.4747 OH        1 <0>       -0.64717
     11 O4          0.7271   -0.6636   -1.0991 OS        1 <0>       -0.45521
     12 H1          0.5005   -1.0572    1.7558 HC        1 <0>        0.04573
     13 H2         -0.9411   -1.7097    2.5788 HC        1 <0>        0.04573
     14 H3         -0.5256   -0.0273    2.7733 HC        1 <0>        0.04573
     15 H4         -3.4760    0.0736    0.4540 HC        1 <0>        0.04573
     16 H5         -2.8489    0.6242    2.0236 HC        1 <0>        0.04573
     17 H6         -3.2550   -1.0670    1.7999 HC        1 <0>        0.04573
     18 H7          1.6787    1.6791   -2.1383 HC        1 <0>        0.05279
     19 H8         -0.0295    1.5111   -2.4933 HC        1 <0>        0.05279
     20 H9          0.4814    2.7102   -1.3061 HC        1 <0>        0.05279
     21 H10        -1.5660    0.8984   -0.8036 HC        1 <0>        0.06153
     22 H11        -0.9187    1.6287    0.6772 HC        1 <0>        0.06153
     23 H12         2.6919   -0.2817   -1.7432 H2        1 <0>        0.06053
     24 H13         2.0270   -1.8785   -2.0764 H2        1 <0>        0.06053
     25 H14         3.5835   -1.8847   -0.4189 HO        1 <0>        0.41923
     26 H15        -1.8752   -2.3267    0.4990 HO        1 <0>        0.42316
     27 H16         1.2664    1.8579    0.8184 HO        1 <0>        0.42087
@<TRIPOS>BOND
     1    1    6 1
     2    2    6 1
     3    3    7 1
     4    4    6 1
     5    4    7 1
     6    5    8 1
     7    5   11 1
     8    6    9 1
     9    7   10 1
    10    7   11 1
    11    1   12 1
    12    1   13 1
    13    1   14 1
    14    2   15 1
    15    2   16 1
    16    2   17 1
    17    3   18 1
    18    3   19 1
    19    3   20 1
    20    4   21 1
    21    4   22 1
    22    5   23 1
    23    5   24 1
    24    8   25 1
    25    9   26 1
    26   10   27 1
@<TRIPOS>SUBSTRUCTURE
     1 <0>         1 GROUP 0 A     ****
