@<TRIPOS>MOLECULE
AlkEthOH_c1075
   24    23     1     0     0
SMALL
USER_CHARGES

@<TRIPOS>ATOM
      1 C1          2.4707   -1.4448    1.5859 CT        1 <0>       -0.09206
      2 C2         -0.1934    1.8289    0.0302 CT        1 <0>       -0.08795
      3 C3         -2.6149   -0.0708   -0.1984 CT        1 <0>       -0.12906
      4 C4          1.9111   -0.3251    0.7210 CT        1 <0>       -0.07985
      5 C5          0.4700   -0.6179    0.2931 CT        1 <0>       -0.07540
      6 C6         -0.1179    0.4545   -0.6472 CT        1 <0>       -0.05894
      7 C7         -1.4854    0.0073   -1.2186 CT        1 <0>        0.14263
      8 O1         -1.8979    0.9107   -2.2454 OH        1 <0>       -0.60357
      9 H1          1.8501   -1.5814    2.4769 HC        1 <0>        0.03261
     10 H2          2.4908   -2.3917    1.0370 HC        1 <0>        0.03261
     11 H3          3.4896   -1.2157    1.9142 HC        1 <0>        0.03261
     12 H4         -0.8558    1.8075    0.9015 HC        1 <0>        0.03812
     13 H5         -0.5938    2.5826   -0.6549 HC        1 <0>        0.03812
     14 H6          0.7933    2.1693    0.3599 HC        1 <0>        0.03812
     15 H7         -2.7468    0.9021    0.2886 HC        1 <0>        0.04284
     16 H8         -3.5657   -0.3497   -0.6602 HC        1 <0>        0.04284
     17 H9         -2.3854   -0.7818    0.6020 HC        1 <0>        0.04284
     18 H10         2.5459   -0.2049   -0.1643 HC        1 <0>        0.04062
     19 H11         1.9587    0.6103    1.2882 HC        1 <0>        0.04062
     20 H12        -0.1541   -0.7177    1.1894 HC        1 <0>        0.03885
     21 H13         0.4480   -1.5886   -0.2183 HC        1 <0>        0.03885
     22 H14         0.5619    0.5675   -1.5032 HC        1 <0>        0.06073
     23 H15        -1.3753   -0.9769   -1.6895 H1        1 <0>        0.02638
     24 H16        -2.7060    0.5380   -2.6284 HO        1 <0>        0.39744
@<TRIPOS>BOND
     1    1    4 1
     2    2    6 1
     3    3    7 1
     4    4    5 1
     5    5    6 1
     6    6    7 1
     7    7    8 1
     8    1    9 1
     9    1   10 1
    10    1   11 1
    11    2   12 1
    12    2   13 1
    13    2   14 1
    14    3   15 1
    15    3   16 1
    16    3   17 1
    17    4   18 1
    18    4   19 1
    19    5   20 1
    20    5   21 1
    21    6   22 1
    22    7   23 1
    23    8   24 1
@<TRIPOS>SUBSTRUCTURE
     1 <0>         1 GROUP 0 A     ****
