@<TRIPOS>MOLECULE
AlkEthOH_r35
   20    20     1     0     0
SMALL
USER_CHARGES

@<TRIPOS>ATOM
      1 C1          0.8881   -0.6424    0.0442 CT        1 <0>       -0.07485
      2 C2          0.8779   -1.6080   -1.1369 CT        1 <0>       -0.07479
      3 C3          0.9094   -1.3895    1.3723 CT        1 <0>       -0.11325
      4 C4         -0.2771   -2.5972   -1.0358 CT        1 <0>       -0.11325
      5 C5         -0.2405   -2.3890    1.4857 CT        1 <0>        0.14755
      6 C6         -0.2720   -3.3498    0.2937 CT        1 <0>        0.14755
      7 O1         -0.0591   -3.1252    2.6938 OH        1 <0>       -0.58954
      8 O2         -1.4543   -4.1460    0.3472 OH        1 <0>       -0.58954
      9 H1          1.7621    0.0150   -0.0244 HC        1 <0>        0.04297
     10 H2          0.0000   -0.0001    0.0001 HC        1 <0>        0.04297
     11 H3          0.8008   -1.0442   -2.0733 HC        1 <0>        0.04297
     12 H4          1.8273   -2.1564   -1.1702 HC        1 <0>        0.04297
     13 H5          1.8672   -1.9139    1.4872 HC        1 <0>        0.04835
     14 H6          0.8629   -0.6768    2.2048 HC        1 <0>        0.04835
     15 H7         -1.2310   -2.0667   -1.1563 HC        1 <0>        0.04835
     16 H8         -0.2315   -3.3130   -1.8655 HC        1 <0>        0.04835
     17 H9         -1.1947   -1.8549    1.5712 H1        1 <0>        0.04947
     18 H10         0.5830   -4.0357    0.3330 H1        1 <0>        0.04947
     19 H11        -0.0740   -2.4778    3.4153 HO        1 <0>        0.39795
     20 H12        -1.4122   -4.7520   -0.4083 HO        1 <0>        0.39795
@<TRIPOS>BOND
     1    1    2 1
     2    1    3 1
     3    2    4 1
     4    3    5 1
     5    4    6 1
     6    5    6 1
     7    5    7 1
     8    6    8 1
     9    1    9 1
    10    1   10 1
    11    2   11 1
    12    2   12 1
    13    3   13 1
    14    3   14 1
    15    4   15 1
    16    4   16 1
    17    5   17 1
    18    6   18 1
    19    7   19 1
    20    8   20 1
@<TRIPOS>SUBSTRUCTURE
     1 <0>         1 GROUP 0 A     ****
