@<TRIPOS>MOLECULE
AlkEthOH_c622
   28    27     1     0     0
SMALL
USER_CHARGES

@<TRIPOS>ATOM
      1 C1          0.6510   -0.1608    2.9407 CT        1 <0>       -0.13226
      2 C2          1.4265    0.1061   -1.4661 CT        1 <0>       -0.08907
      3 C3         -0.5575    1.6172   -1.5834 CT        1 <0>       -0.08907
      4 C4         -3.0553   -1.7541   -1.3923 CT        1 <0>        0.11950
      5 C5          0.0073    0.5500    0.6058 CT        1 <0>       -0.06486
      6 C6         -0.8809   -0.8628   -1.3774 CT        1 <0>        0.13201
      7 C7          0.6442   -0.5535    1.4666 CT        1 <0>        0.14217
      8 C8         -0.0024    0.3269   -0.9374 CT        1 <0>       -0.04218
      9 O1         -0.0764   -1.7746    1.3432 OH        1 <0>       -0.59931
     10 O2         -2.2219   -0.6968   -0.9369 OS        1 <0>       -0.41906
     11 H1         -0.3691    0.0375    3.2875 HC        1 <0>        0.04233
     12 H2          1.2223    0.7605    3.1000 HC        1 <0>        0.04233
     13 H3          1.0822   -0.9522    3.5613 HC        1 <0>        0.04233
     14 H4          1.8690   -0.8006   -1.0374 HC        1 <0>        0.03659
     15 H5          2.0877    0.9398   -1.2089 HC        1 <0>        0.03659
     16 H6          1.4329   -0.0059   -2.5560 HC        1 <0>        0.03659
     17 H7         -1.5775    1.8292   -1.2444 HC        1 <0>        0.03659
     18 H8         -0.5802    1.5357   -2.6760 HC        1 <0>        0.03659
     19 H9          0.0630    2.4844   -1.3301 HC        1 <0>        0.03659
     20 H10        -4.0758   -1.5940   -1.0358 H1        1 <0>        0.02947
     21 H11        -2.6728   -2.7074   -1.0189 H1        1 <0>        0.02947
     22 H12        -3.0509   -1.7648   -2.4848 H1        1 <0>        0.02947
     23 H13        -1.0267    0.7033    0.9435 HC        1 <0>        0.05688
     24 H14         0.5389    1.4902    0.8082 HC        1 <0>        0.05688
     25 H15        -0.4998   -1.8100   -0.9832 H1        1 <0>        0.03560
     26 H16        -0.8936   -0.9479   -2.4704 H1        1 <0>        0.03560
     27 H17         1.6753   -0.7434    1.1560 H1        1 <0>        0.02783
     28 H18         0.3914   -2.4297    1.8850 HO        1 <0>        0.39440
@<TRIPOS>BOND
     1    1    7 1
     2    2    8 1
     3    3    8 1
     4    4   10 1
     5    5    7 1
     6    5    8 1
     7    6    8 1
     8    6   10 1
     9    7    9 1
    10    1   11 1
    11    1   12 1
    12    1   13 1
    13    2   14 1
    14    2   15 1
    15    2   16 1
    16    3   17 1
    17    3   18 1
    18    3   19 1
    19    4   20 1
    20    4   21 1
    21    4   22 1
    22    5   23 1
    23    5   24 1
    24    6   25 1
    25    6   26 1
    26    7   27 1
    27    9   28 1
@<TRIPOS>SUBSTRUCTURE
     1 <0>         1 GROUP 0 A     ****
