@<TRIPOS>MOLECULE
AlkEthOH_r263
   21    21     1     0     0
SMALL
USER_CHARGES

@<TRIPOS>ATOM
      1 C1          0.9860    0.3830   -0.0937 CT        1 <0>       -0.09053
      2 C2         -0.5570   -1.3801    0.2267 CT        1 <0>        0.10319
      3 C3          0.4258   -0.5133    0.9974 CT        1 <0>        0.12279
      4 C4         -0.2308    0.5981   -0.9929 CT        1 <0>        0.34271
      5 C5          1.4845   -1.3119    1.7386 CT        1 <0>       -0.12104
      6 C6          0.1522    0.8329   -2.4469 CT        1 <0>       -0.10828
      7 O1         -1.0203   -0.5982   -0.8890 OS        1 <0>       -0.45036
      8 O2         -0.2761    0.2690    1.9631 OH        1 <0>       -0.57261
      9 O3         -0.9642    1.7207   -0.5033 OH        1 <0>       -0.61308
     10 H1          1.3854    1.3257    0.2950 HC        1 <0>        0.08026
     11 H2          1.7762   -0.1466   -0.6398 HC        1 <0>        0.08026
     12 H3         -0.0799   -2.2738   -0.1893 H1        1 <0>        0.05376
     13 H4         -1.4251   -1.6823    0.8200 H1        1 <0>        0.05376
     14 H5          1.0192   -1.9329    2.5060 HC        1 <0>        0.04725
     15 H6          2.1976   -0.6386    2.2172 HC        1 <0>        0.04725
     16 H7          2.0238   -1.9581    1.0439 HC        1 <0>        0.04725
     17 H8         -0.7437    0.9811   -3.0506 HC        1 <0>        0.05205
     18 H9          0.6994   -0.0276   -2.8333 HC        1 <0>        0.05205
     19 H10         0.7834    1.7184   -2.5291 HC        1 <0>        0.05205
     20 H11        -0.6085   -0.3516    2.6291 HO        1 <0>        0.39876
     21 H12        -1.7255    1.8289   -1.0932 HO        1 <0>        0.42251
@<TRIPOS>BOND
     1    1    3 1
     2    1    4 1
     3    2    3 1
     4    2    7 1
     5    3    5 1
     6    3    8 1
     7    4    6 1
     8    4    7 1
     9    4    9 1
    10    1   10 1
    11    1   11 1
    12    2   12 1
    13    2   13 1
    14    5   14 1
    15    5   15 1
    16    5   16 1
    17    6   17 1
    18    6   18 1
    19    6   19 1
    20    8   20 1
    21    9   21 1
@<TRIPOS>SUBSTRUCTURE
     1 <0>         1 GROUP 0 A     ****
