@<TRIPOS>MOLECULE
AlkEthOH_c953
   28    27     1     0     0
SMALL
USER_CHARGES

@<TRIPOS>ATOM
      1 C1          0.7914    0.9335   -2.1444 CT        1 <0>       -0.08580
      2 C2         -1.0917   -1.9929    1.7086 CT        1 <0>       -0.10613
      3 C3          0.0467   -3.4857    0.0398 CT        1 <0>       -0.10613
      4 C4          1.3980   -1.8410    1.3728 CT        1 <0>       -0.10613
      5 C5         -1.5106    0.8961   -0.2128 CT        1 <0>       -0.12995
      6 C6          0.9554    0.9538   -0.6268 CT        1 <0>       -0.11132
      7 C7          0.0518   -2.1095    0.7018 CT        1 <0>        0.18618
      8 C8         -0.1759    0.2209    0.1232 CT        1 <0>        0.36325
      9 O1          0.0921    0.3494    1.5208 OH        1 <0>       -0.62162
     10 O2         -0.1451   -1.1428   -0.3195 OS        1 <0>       -0.43998
     11 H1         -0.1649    1.3881   -2.4229 HC        1 <0>        0.03894
     12 H2          1.5871    1.4989   -2.6390 HC        1 <0>        0.03894
     13 H3          0.8009   -0.0893   -2.5333 HC        1 <0>        0.03894
     14 H4         -1.0915   -1.0064    2.1859 HC        1 <0>        0.04357
     15 H5         -2.0655   -2.1488    1.2329 HC        1 <0>        0.04357
     16 H6         -0.9790   -2.7265    2.5150 HC        1 <0>        0.04357
     17 H7          0.8655   -3.5738   -0.6834 HC        1 <0>        0.04357
     18 H8         -0.8804   -3.6447   -0.5228 HC        1 <0>        0.04357
     19 H9          0.1472   -4.2889    0.7768 HC        1 <0>        0.04357
     20 H10         2.2184   -1.9245    0.6508 HC        1 <0>        0.04357
     21 H11         1.4330   -0.8430    1.8216 HC        1 <0>        0.04357
     22 H12         1.5980   -2.5819    2.1552 HC        1 <0>        0.04357
     23 H13        -2.3453    0.4066    0.3001 HC        1 <0>        0.04856
     24 H14        -1.5184    1.9404    0.1184 HC        1 <0>        0.04856
     25 H15        -1.7160    0.8574   -1.2876 HC        1 <0>        0.04856
     26 H16         1.9212    0.4920   -0.3867 HC        1 <0>        0.04564
     27 H17         0.9955    2.0017   -0.3047 HC        1 <0>        0.04564
     28 H18         0.1363    1.2957    1.7378 HO        1 <0>        0.41172
@<TRIPOS>BOND
     1    1    6 1
     2    2    7 1
     3    3    7 1
     4    4    7 1
     5    5    8 1
     6    6    8 1
     7    7   10 1
     8    8    9 1
     9    8   10 1
    10    1   11 1
    11    1   12 1
    12    1   13 1
    13    2   14 1
    14    2   15 1
    15    2   16 1
    16    3   17 1
    17    3   18 1
    18    3   19 1
    19    4   20 1
    20    4   21 1
    21    4   22 1
    22    5   23 1
    23    5   24 1
    24    5   25 1
    25    6   26 1
    26    6   27 1
    27    9   28 1
@<TRIPOS>SUBSTRUCTURE
     1 <0>         1 GROUP 0 A     ****
