@<TRIPOS>MOLECULE
AlkEthOH_c751
   20    19     1     0     0
SMALL
USER_CHARGES

@<TRIPOS>ATOM
      1 C1          0.4755    0.8174   -0.5531 CT        1 <0>       -0.12338
      2 C2          1.4087   -0.7635   -2.2846 CT        1 <0>       -0.07761
      3 C3          1.4726   -1.1380   -3.7611 CT        1 <0>        0.13325
      4 C4         -1.3945    1.5473   -2.8177 CT        1 <0>        0.32749
      5 C5          0.5699    0.4916   -2.0374 CT        1 <0>        0.14083
      6 O1          2.2530   -2.3176   -3.9010 OH        1 <0>       -0.60878
      7 O2         -0.7636    2.2939   -3.8483 OH        1 <0>       -0.63163
      8 O3         -0.7469    0.3091   -2.5505 OS        1 <0>       -0.41702
      9 H1          0.0379   -0.0129    0.0092 HC        1 <0>        0.04214
     10 H2         -0.1318    1.7136   -0.3845 HC        1 <0>        0.04214
     11 H3          1.4697    1.0302   -0.1457 HC        1 <0>        0.04214
     12 H4          2.4274   -0.6206   -1.9031 HC        1 <0>        0.06026
     13 H5          0.9913   -1.6145   -1.7307 HC        1 <0>        0.06026
     14 H6          0.4742   -1.3353   -4.1636 H1        1 <0>        0.03304
     15 H7          1.9417   -0.3399   -4.3452 H1        1 <0>        0.03304
     16 H8         -1.4835    2.1553   -1.9099 H2        1 <0>        0.03681
     17 H9         -2.4062    1.3125   -3.1607 H2        1 <0>        0.03681
     18 H10         1.0115    1.3445   -2.5644 H1        1 <0>        0.06079
     19 H11         2.2742   -2.5287   -4.8484 HO        1 <0>        0.39835
     20 H12        -1.2707    3.1157   -3.9598 HO        1 <0>        0.41107
@<TRIPOS>BOND
     1    1    5 1
     2    2    3 1
     3    2    5 1
     4    3    6 1
     5    4    7 1
     6    4    8 1
     7    5    8 1
     8    1    9 1
     9    1   10 1
    10    1   11 1
    11    2   12 1
    12    2   13 1
    13    3   14 1
    14    3   15 1
    15    4   16 1
    16    4   17 1
    17    5   18 1
    18    6   19 1
    19    7   20 1
@<TRIPOS>SUBSTRUCTURE
     1 <0>         1 GROUP 0 A     ****
