@<TRIPOS>MOLECULE
AlkEthOH_c360
   31    30     1     0     0
SMALL
USER_CHARGES

@<TRIPOS>ATOM
      1 C1          2.8886    0.1880   -0.0830 CT        1 <0>       -0.09218
      2 C2          2.2362    1.1396    2.1303 CT        1 <0>       -0.09218
      3 C3         -2.3812   -1.0427   -1.8558 CT        1 <0>       -0.12129
      4 C4         -2.6292    0.4263    0.1587 CT        1 <0>       -0.12129
      5 C5         -0.1397    1.0881   -1.6274 CT        1 <0>       -0.09026
      6 C6          0.4280    0.1634    0.6826 CT        1 <0>       -0.09482
      7 C7          1.7828    0.9154    0.6817 CT        1 <0>       -0.06124
      8 C8         -1.7323   -0.6137   -0.5320 CT        1 <0>        0.12230
      9 C9         -0.2454   -0.1256   -0.6878 CT        1 <0>        0.18023
     10 O1         -1.7192   -1.7723    0.3206 OH        1 <0>       -0.61347
     11 O2          0.4855   -1.1956   -1.3075 OH        1 <0>       -0.60347
     12 H1          3.0581   -0.8110    0.3343 HC        1 <0>        0.03515
     13 H2          3.8403    0.7222   -0.0163 HC        1 <0>        0.03515
     14 H3          2.6299    0.0704   -1.1405 HC        1 <0>        0.03515
     15 H4          2.3956    0.1880    2.6488 HC        1 <0>        0.03515
     16 H5          3.1741    1.7045    2.1624 HC        1 <0>        0.03515
     17 H6          1.4872    1.7103    2.6895 HC        1 <0>        0.03515
     18 H7         -1.7707   -1.7854   -2.3796 HC        1 <0>        0.04534
     19 H8         -2.5611   -0.1974   -2.5254 HC        1 <0>        0.04534
     20 H9         -3.3464   -1.5302   -1.6714 HC        1 <0>        0.04534
     21 H10        -2.1978    0.7573    1.1094 HC        1 <0>        0.04534
     22 H11        -3.6059   -0.0065    0.4062 HC        1 <0>        0.04534
     23 H12        -2.8037    1.3028   -0.4721 HC        1 <0>        0.04534
     24 H13        -0.6111    0.8951   -2.5958 HC        1 <0>        0.04708
     25 H14        -0.6069    1.9755   -1.1868 HC        1 <0>        0.04708
     26 H15         0.9041    1.3706   -1.8022 HC        1 <0>        0.04708
     27 H16        -0.2630    0.7510    1.2977 HC        1 <0>        0.05107
     28 H17         0.5883   -0.7883    1.2054 HC        1 <0>        0.05107
     29 H18         1.6457    1.9065    0.2339 HC        1 <0>        0.04254
     30 H19        -2.6441   -2.0290    0.4295 HO        1 <0>        0.40360
     31 H20         0.4108   -1.9499   -0.7076 HO        1 <0>        0.41521
@<TRIPOS>BOND
     1    1    7 1
     2    2    7 1
     3    3    8 1
     4    4    8 1
     5    5    9 1
     6    6    7 1
     7    6    9 1
     8    8    9 1
     9    8   10 1
    10    9   11 1
    11    1   12 1
    12    1   13 1
    13    1   14 1
    14    2   15 1
    15    2   16 1
    16    2   17 1
    17    3   18 1
    18    3   19 1
    19    3   20 1
    20    4   21 1
    21    4   22 1
    22    4   23 1
    23    5   24 1
    24    5   25 1
    25    5   26 1
    26    6   27 1
    27    6   28 1
    28    7   29 1
    29   10   30 1
    30   11   31 1
@<TRIPOS>SUBSTRUCTURE
     1 <0>         1 GROUP 0 A     ****
