@<TRIPOS>MOLECULE
AlkEthOH_c1151
   18    17     1     0     0
SMALL
USER_CHARGES

@<TRIPOS>ATOM
      1 C1         -0.0095   -0.6551    0.8768 CT        1 <0>       -0.09262
      2 C2          3.8322   -1.5865    5.5575 CT        1 <0>       -0.09603
      3 C3          1.2444   -0.4434    1.7060 CT        1 <0>       -0.08479
      4 C4          2.5499   -1.9092    4.8204 CT        1 <0>        0.13032
      5 C5          1.2749   -1.3494    2.9273 CT        1 <0>        0.13066
      6 O1          2.4629   -1.0899    3.6622 OS        1 <0>       -0.42534
      7 H1         -0.0920   -1.6965    0.5497 HC        1 <0>        0.03483
      8 H2         -0.8996   -0.4128    1.4659 HC        1 <0>        0.03483
      9 H3         -0.0053   -0.0150   -0.0111 HC        1 <0>        0.03483
     10 H4          4.7042   -1.7804    4.9267 HC        1 <0>        0.04469
     11 H5          3.8459   -0.5362    5.8666 HC        1 <0>        0.04469
     12 H6          3.9149   -2.1877    6.4690 HC        1 <0>        0.04469
     13 H7          1.3083    0.6043    2.0234 HC        1 <0>        0.05358
     14 H8          2.1333   -0.6260    1.0902 HC        1 <0>        0.05358
     15 H9          1.6817   -1.7131    5.4567 H1        1 <0>        0.02234
     16 H10         2.5382   -2.9587    4.5115 H1        1 <0>        0.02234
     17 H11         0.4147   -1.1588    3.5770 H1        1 <0>        0.02370
     18 H12         1.2712   -2.4035    2.6320 H1        1 <0>        0.02370
@<TRIPOS>BOND
     1    1    3 1
     2    2    4 1
     3    3    5 1
     4    4    6 1
     5    5    6 1
     6    1    7 1
     7    1    8 1
     8    1    9 1
     9    2   10 1
    10    2   11 1
    11    2   12 1
    12    3   13 1
    13    3   14 1
    14    4   15 1
    15    4   16 1
    16    5   17 1
    17    5   18 1
@<TRIPOS>SUBSTRUCTURE
     1 <0>         1 GROUP 0 A     ****
