@<TRIPOS>MOLECULE
AlkEthOH_r225
   30    30     1     0     0
SMALL
USER_CHARGES

@<TRIPOS>ATOM
      1 C1         -0.3489    0.1312   -2.4094 CT        1 <0>       -0.07341
      2 C2         -1.1298   -1.0399   -1.8025 CT        1 <0>       -0.07202
      3 C3          1.1753   -0.0430   -2.3695 CT        1 <0>       -0.09014
      4 C4         -2.0987   -0.6495   -0.6802 CT        1 <0>       -0.10759
      5 C5         -0.3506   -0.5475    1.2239 CT        1 <0>       -0.12681
      6 C6          1.7538   -0.2895   -0.9781 CT        1 <0>        0.14342
      7 C7         -1.5152    0.1473    0.4975 CT        1 <0>        0.15018
      8 C8          0.9662    0.2677    1.2327 CT        1 <0>        0.35094
      9 C9          0.8197    1.5167    2.1093 CT        1 <0>       -0.11102
     10 O1          1.3050    0.7227   -0.0834 OS        1 <0>       -0.41722
     11 O2         -2.5641    0.3398    1.4545 OH        1 <0>       -0.61256
     12 O3          1.9874   -0.5560    1.8052 OH        1 <0>       -0.62688
     13 H1         -0.6415    0.2325   -3.4627 HC        1 <0>        0.04412
     14 H2         -0.6208    1.0841   -1.9444 HC        1 <0>        0.04412
     15 H3         -1.7268   -1.4999   -2.6013 HC        1 <0>        0.03981
     16 H4         -0.4642   -1.8371   -1.4586 HC        1 <0>        0.03981
     17 H5          1.4717   -0.8653   -3.0313 HC        1 <0>        0.04552
     18 H6          1.6217    0.8717   -2.7794 HC        1 <0>        0.04552
     19 H7         -2.9223   -0.0656   -1.1129 HC        1 <0>        0.04325
     20 H8         -2.5751   -1.5616   -0.2960 HC        1 <0>        0.04325
     21 H9         -0.6225   -0.7780    2.2634 HC        1 <0>        0.06678
     22 H10        -0.1600   -1.5296    0.7768 HC        1 <0>        0.06678
     23 H11         1.5028   -1.2970   -0.6342 H1        1 <0>        0.04428
     24 H12         2.8471   -0.2345   -1.0239 H1        1 <0>        0.04428
     25 H13        -1.2344    1.1468    0.1552 H1        1 <0>        0.05118
     26 H14         1.7516    2.0759    2.1039 HC        1 <0>        0.05437
     27 H15         0.5825    1.2202    3.1277 HC        1 <0>        0.05437
     28 H16         0.0208    2.1424    1.7198 HC        1 <0>        0.05437
     29 H17        -3.2601    0.8310    0.9954 HO        1 <0>        0.39939
     30 H18         1.6907   -0.7701    2.7014 HO        1 <0>        0.41191
@<TRIPOS>BOND
     1    1    2 1
     2    1    3 1
     3    2    4 1
     4    3    6 1
     5    4    7 1
     6    5    7 1
     7    5    8 1
     8    6   10 1
     9    7   11 1
    10    8    9 1
    11    8   10 1
    12    8   12 1
    13    1   13 1
    14    1   14 1
    15    2   15 1
    16    2   16 1
    17    3   17 1
    18    3   18 1
    19    4   19 1
    20    4   20 1
    21    5   21 1
    22    5   22 1
    23    6   23 1
    24    6   24 1
    25    7   25 1
    26    9   26 1
    27    9   27 1
    28    9   28 1
    29   11   29 1
    30   12   30 1
@<TRIPOS>SUBSTRUCTURE
     1 <0>         1 GROUP 0 A     ****
