@<TRIPOS>MOLECULE
AlkEthOH_c86
   27    26     1     0     0
SMALL
USER_CHARGES

@<TRIPOS>ATOM
      1 C1          0.4004    1.8217   -1.8197 CT        1 <0>       -0.13422
      2 C2         -1.6162   -2.4025    0.1104 CT        1 <0>       -0.13249
      3 C3          0.5451   -2.0821   -1.0830 CT        1 <0>       -0.13249
      4 C4         -0.3388    1.0786    1.9402 CT        1 <0>       -0.09378
      5 C5         -0.0703    2.0310   -0.3807 CT        1 <0>        0.11074
      6 C6         -0.3026   -1.6176    0.1039 CT        1 <0>        0.37277
      7 C7          0.1408    0.7838    0.5123 CT        1 <0>        0.38384
      8 O1          0.6363    3.1438    0.1646 OH        1 <0>       -0.59252
      9 O2          0.3472   -1.9237    1.3337 OH        1 <0>       -0.59788
     10 O3          1.5386    0.4996    0.5243 OH        1 <0>       -0.57952
     11 O4         -0.6807   -0.2461   -0.0579 OS        1 <0>       -0.48150
     12 H1          1.4650    1.5631   -1.8359 HC        1 <0>        0.04714
     13 H2         -0.1272    0.9870   -2.2936 HC        1 <0>        0.04714
     14 H3          0.2580    2.7200   -2.4273 HC        1 <0>        0.04714
     15 H4         -2.2588   -2.1034    0.9456 HC        1 <0>        0.04866
     16 H5         -2.1778   -2.2115   -0.8120 HC        1 <0>        0.04866
     17 H6         -1.4391   -3.4823    0.1617 HC        1 <0>        0.04866
     18 H7          1.4977   -1.5434   -1.1248 HC        1 <0>        0.04866
     19 H8          0.0100   -1.9407   -2.0285 HC        1 <0>        0.04866
     20 H9          0.7819   -3.1481   -1.0191 HC        1 <0>        0.04866
     21 H10        -0.2029    0.2142    2.5987 HC        1 <0>        0.05972
     22 H11         0.1882    1.9407    2.3628 HC        1 <0>        0.05972
     23 H12        -1.4063    1.3169    1.9635 HC        1 <0>        0.05972
     24 H13        -1.1369    2.2877   -0.4013 H1        1 <0>        0.05273
     25 H14         0.4210    3.9065   -0.3938 HO        1 <0>        0.40176
     26 H15         0.5035   -2.8818    1.3682 HO        1 <0>        0.40966
     27 H16         1.8241    0.3158   -0.3859 HO        1 <0>        0.40036
@<TRIPOS>BOND
     1    1    5 1
     2    2    6 1
     3    3    6 1
     4    4    7 1
     5    5    7 1
     6    5    8 1
     7    6    9 1
     8    6   11 1
     9    7   10 1
    10    7   11 1
    11    1   12 1
    12    1   13 1
    13    1   14 1
    14    2   15 1
    15    2   16 1
    16    2   17 1
    17    3   18 1
    18    3   19 1
    19    3   20 1
    20    4   21 1
    21    4   22 1
    22    4   23 1
    23    5   24 1
    24    8   25 1
    25    9   26 1
    26   10   27 1
@<TRIPOS>SUBSTRUCTURE
     1 <0>         1 GROUP 0 A     ****
