@<TRIPOS>MOLECULE
AlkEthOH_c743
   22    21     1     0     0
SMALL
USER_CHARGES

@<TRIPOS>ATOM
      1 C1         -1.0094   -0.3889   -0.1718 CT        1 <0>       -0.08761
      2 C2         -4.6497   -2.5374    0.1182 CT        1 <0>        0.11565
      3 C3         -1.1514   -1.1433    2.2130 CT        1 <0>       -0.08139
      4 C4         -1.8560   -1.0772    3.5627 CT        1 <0>        0.13318
      5 C5         -3.2855   -0.7635    0.8358 CT        1 <0>        0.12819
      6 C6         -1.8434   -0.3185    1.1125 CT        1 <0>       -0.05883
      7 O1         -1.1215   -1.8557    4.4990 OH        1 <0>       -0.60077
      8 O2         -3.3181   -2.0993    0.3535 OS        1 <0>       -0.41762
      9 H1         -0.9460   -1.4191   -0.5379 HC        1 <0>        0.03974
     10 H2         -1.4647    0.2163   -0.9630 HC        1 <0>        0.03974
     11 H3          0.0100   -0.0217   -0.0116 HC        1 <0>        0.03974
     12 H4         -4.6360   -3.5658   -0.2508 H1        1 <0>        0.03241
     13 H5         -5.1256   -1.8820   -0.6156 H1        1 <0>        0.03241
     14 H6         -5.2083   -2.4967    1.0563 H1        1 <0>        0.03241
     15 H7         -1.0540   -2.1934    1.9084 HC        1 <0>        0.06257
     16 H8         -0.1209   -0.7858    2.3419 HC        1 <0>        0.06257
     17 H9         -1.9025   -0.0468    3.9290 H1        1 <0>        0.01880
     18 H10        -2.8692   -1.4847    3.5052 H1        1 <0>        0.01880
     19 H11        -3.7473   -0.1146    0.0835 H1        1 <0>        0.02403
     20 H12        -3.8946   -0.7066    1.7430 H1        1 <0>        0.02403
     21 H13        -1.8722    0.7314    1.4313 HC        1 <0>        0.04480
     22 H14        -1.5934   -1.7938    5.3449 HO        1 <0>        0.39715
@<TRIPOS>BOND
     1    1    6 1
     2    2    8 1
     3    3    4 1
     4    3    6 1
     5    4    7 1
     6    5    6 1
     7    5    8 1
     8    1    9 1
     9    1   10 1
    10    1   11 1
    11    2   12 1
    12    2   13 1
    13    2   14 1
    14    3   15 1
    15    3   16 1
    16    4   17 1
    17    4   18 1
    18    5   19 1
    19    5   20 1
    20    6   21 1
    21    7   22 1
@<TRIPOS>SUBSTRUCTURE
     1 <0>         1 GROUP 0 A     ****
