@<TRIPOS>MOLECULE
AlkEthOH_c972
   26    25     1     0     0
SMALL
USER_CHARGES

@<TRIPOS>ATOM
      1 C1          0.0635   -0.8749    0.5145 CT        1 <0>       -0.09182
      2 C2         -3.1327    1.5736    3.3214 CT        1 <0>       -0.09014
      3 C3         -1.9251    3.6457    2.6084 CT        1 <0>       -0.09014
      4 C4          0.1093    0.0182    4.2996 CT        1 <0>       -0.09066
      5 C5          0.5477   -0.7217    1.9497 CT        1 <0>       -0.07789
      6 C6         -0.7703    1.4264    2.3652 CT        1 <0>       -0.07096
      7 C7         -1.7643    2.2474    3.2131 CT        1 <0>       -0.06686
      8 C8         -0.4554    0.0019    2.8746 CT        1 <0>       -0.06293
      9 H1         -0.1463    0.1000    0.0633 HC        1 <0>        0.03289
     10 H2          0.7980   -1.3960   -0.1060 HC        1 <0>        0.03289
     11 H3         -0.8595   -1.4635    0.4924 HC        1 <0>        0.03289
     12 H4         -3.5817    1.4205    2.3356 HC        1 <0>        0.03280
     13 H5         -3.8242    2.1740    3.9219 HC        1 <0>        0.03280
     14 H6         -3.0442    0.5889    3.7932 HC        1 <0>        0.03280
     15 H7         -2.3282    3.5860    1.5919 HC        1 <0>        0.03280
     16 H8         -2.6161    4.2504    3.2053 HC        1 <0>        0.03280
     17 H9         -0.9658    4.1724    2.5616 HC        1 <0>        0.03280
     18 H10         1.0390    0.5961    4.3440 HC        1 <0>        0.03318
     19 H11        -0.6013    0.4669    5.0019 HC        1 <0>        0.03318
     20 H12         0.3456   -0.9912    4.6486 HC        1 <0>        0.03318
     21 H13         0.7408   -1.7261    2.3475 HC        1 <0>        0.03706
     22 H14         1.5091   -0.1936    1.9506 HC        1 <0>        0.03706
     23 H15        -1.1700    1.3612    1.3458 HC        1 <0>        0.03930
     24 H16         0.1708    1.9876    2.2900 HC        1 <0>        0.03930
     25 H17        -1.3597    2.3772    4.2236 HC        1 <0>        0.04682
     26 H18        -1.3809   -0.5866    2.8854 HC        1 <0>        0.04685
@<TRIPOS>BOND
     1    1    5 1
     2    2    7 1
     3    3    7 1
     4    4    8 1
     5    5    8 1
     6    6    7 1
     7    6    8 1
     8    1    9 1
     9    1   10 1
    10    1   11 1
    11    2   12 1
    12    2   13 1
    13    2   14 1
    14    3   15 1
    15    3   16 1
    16    3   17 1
    17    4   18 1
    18    4   19 1
    19    4   20 1
    20    5   21 1
    21    5   22 1
    22    6   23 1
    23    6   24 1
    24    7   25 1
    25    8   26 1
@<TRIPOS>SUBSTRUCTURE
     1 <0>         1 GROUP 0 A     ****
