@<TRIPOS>MOLECULE
AlkEthOH_c191
   19    18     1     0     0
SMALL
USER_CHARGES

@<TRIPOS>ATOM
      1 C1         -0.4645   -0.0646    0.9894 CT        1 <0>       -0.10979
      2 C2          1.6273    0.6910    2.1567 CT        1 <0>       -0.10979
      3 C3          1.2036   -1.7604    1.8118 CT        1 <0>       -0.10979
      4 C4         -1.1326   -1.4303    3.3565 CT        1 <0>        0.32845
      5 C5          0.5609   -0.3988    2.0719 CT        1 <0>        0.15309
      6 O1         -1.8845   -1.4231    4.5614 OH        1 <0>       -0.58266
      7 O2         -0.1082   -0.4451    3.3327 OS        1 <0>       -0.40482
      8 H1         -1.2317   -0.8445    0.9253 HC        1 <0>        0.04503
      9 H2         -0.9578    0.8935    1.1830 HC        1 <0>        0.04503
     10 H3          0.0103   -0.0162    0.0027 HC        1 <0>        0.04503
     11 H4          2.3651    0.4554    2.9322 HC        1 <0>        0.04503
     12 H5          1.1816    1.6524    2.4367 HC        1 <0>        0.04503
     13 H6          2.1531    0.8168    1.2047 HC        1 <0>        0.04503
     14 H7          1.9391   -2.0003    2.5882 HC        1 <0>        0.04503
     15 H8          0.4566   -2.5604    1.7845 HC        1 <0>        0.04503
     16 H9          1.7476   -1.7592    0.8603 HC        1 <0>        0.04503
     17 H10        -0.7292   -2.4320    3.1680 H2        1 <0>        0.01233
     18 H11        -1.8229   -1.1917    2.5423 H2        1 <0>        0.01233
     19 H12        -2.5547   -2.1233    4.4866 HO        1 <0>        0.40538
@<TRIPOS>BOND
     1    1    5 1
     2    2    5 1
     3    3    5 1
     4    4    6 1
     5    4    7 1
     6    5    7 1
     7    1    8 1
     8    1    9 1
     9    1   10 1
    10    2   11 1
    11    2   12 1
    12    2   13 1
    13    3   14 1
    14    3   15 1
    15    3   16 1
    16    4   17 1
    17    4   18 1
    18    6   19 1
@<TRIPOS>SUBSTRUCTURE
     1 <0>         1 GROUP 0 A     ****
