@<TRIPOS>MOLECULE
AlkEthOH_c314
   27    26     1     0     0
SMALL
USER_CHARGES

@<TRIPOS>ATOM
      1 C1          1.7278   -0.5856   -1.3232 CT        1 <0>       -0.09175
      2 C2          1.1811    1.8324   -1.5604 CT        1 <0>       -0.09175
      3 C3         -1.2512   -0.2699   -1.1886 CT        1 <0>       -0.08574
      4 C4          0.0709   -1.6980    1.2773 CT        1 <0>       -0.12249
      5 C5          0.1967    0.5226    2.4111 CT        1 <0>       -0.12249
      6 C6          1.1003    0.6224   -0.6169 CT        1 <0>       -0.06335
      7 C7         -0.3721    0.4084   -0.1278 CT        1 <0>       -0.04399
      8 C8         -0.4755   -0.2624    1.2838 CT        1 <0>        0.15555
      9 O1         -1.8655   -0.3575    1.6348 OH        1 <0>       -0.60452
     10 H1          1.1298   -0.8641   -2.1983 HC        1 <0>        0.03423
     11 H2          2.7407   -0.3803   -1.6748 HC        1 <0>        0.03423
     12 H3          1.7691   -1.4625   -0.6685 HC        1 <0>        0.03423
     13 H4          0.5725    1.6672   -2.4561 HC        1 <0>        0.03423
     14 H5          0.8253    2.7471   -1.0754 HC        1 <0>        0.03423
     15 H6          2.2119    2.0005   -1.8904 HC        1 <0>        0.03423
     16 H7         -0.9094   -1.2895   -1.3924 HC        1 <0>        0.03888
     17 H8         -1.2505    0.2785   -2.1349 HC        1 <0>        0.03888
     18 H9         -2.2875   -0.3525   -0.8450 HC        1 <0>        0.03888
     19 H10        -0.3779   -2.3071    0.4868 HC        1 <0>        0.04201
     20 H11         1.1576   -1.6997    1.1304 HC        1 <0>        0.04201
     21 H12        -0.1076   -2.1881    2.2411 HC        1 <0>        0.04201
     22 H13        -0.1556    1.5566    2.4634 HC        1 <0>        0.04201
     23 H14         1.2842    0.5457    2.2686 HC        1 <0>        0.04201
     24 H15         0.0442    0.0390    3.3810 HC        1 <0>        0.04201
     25 H16         1.7303    0.8632    0.2479 HC        1 <0>        0.04376
     26 H17        -0.7895    1.4178    0.0080 HC        1 <0>        0.05629
     27 H18        -1.8900   -0.7675    2.5097 HO        1 <0>        0.39640
@<TRIPOS>BOND
     1    1    6 1
     2    2    6 1
     3    3    7 1
     4    4    8 1
     5    5    8 1
     6    6    7 1
     7    7    8 1
     8    8    9 1
     9    1   10 1
    10    1   11 1
    11    1   12 1
    12    2   13 1
    13    2   14 1
    14    2   15 1
    15    3   16 1
    16    3   17 1
    17    3   18 1
    18    4   19 1
    19    4   20 1
    20    4   21 1
    21    5   22 1
    22    5   23 1
    23    5   24 1
    24    6   25 1
    25    7   26 1
    26    9   27 1
@<TRIPOS>SUBSTRUCTURE
     1 <0>         1 GROUP 0 A     ****
