@<TRIPOS>MOLECULE
AlkEthOH_r995
   23    23     1     0     0
SMALL
USER_CHARGES

@<TRIPOS>ATOM
      1 C1         -1.0839   -0.7798   -1.2128 CT        1 <0>       -0.14679
      2 C2         -0.2499    0.3568   -1.7829 CT        1 <0>        0.13388
      3 C3         -1.2440   -0.6020    0.2954 CT        1 <0>        0.14558
      4 C4          0.8541    0.5579    0.3285 CT        1 <0>        0.34214
      5 C5         -1.9407   -1.8019    0.9221 CT        1 <0>       -0.08967
      6 C6          2.2588    0.3454    0.9002 CT        1 <0>       -0.10792
      7 C7          0.3685    1.9527    0.7405 CT        1 <0>       -0.10792
      8 O1          0.9942    0.4467   -1.0943 OS        1 <0>       -0.43748
      9 O2          0.0429   -0.4759    0.9033 OS        1 <0>       -0.43596
     10 H1         -2.0580   -0.8308   -1.7102 HC        1 <0>        0.06034
     11 H2         -0.5536   -1.7211   -1.4065 HC        1 <0>        0.06034
     12 H3         -0.0341    0.1697   -2.8397 H1        1 <0>        0.04948
     13 H4         -0.7799    1.3133   -1.7255 H1        1 <0>        0.04948
     14 H5         -1.8371    0.2928    0.5148 H1        1 <0>        0.03663
     15 H6         -1.3732   -2.7110    0.7208 HC        1 <0>        0.04605
     16 H7         -2.9425   -1.9120    0.5058 HC        1 <0>        0.04605
     17 H8         -2.0197   -1.6668    2.0012 HC        1 <0>        0.04605
     18 H9          2.6221   -0.6401    0.6188 HC        1 <0>        0.05162
     19 H10         2.2268    0.4211    1.9845 HC        1 <0>        0.05162
     20 H11         2.9317    1.1033    0.5061 HC        1 <0>        0.05162
     21 H12        -0.6287    2.1221    0.3431 HC        1 <0>        0.05162
     22 H13         1.0470    2.7045    0.3462 HC        1 <0>        0.05162
     23 H14         0.3422    2.0225    1.8247 HC        1 <0>        0.05162
@<TRIPOS>BOND
     1    1    2 1
     2    1    3 1
     3    2    8 1
     4    3    5 1
     5    3    9 1
     6    4    6 1
     7    4    7 1
     8    4    8 1
     9    4    9 1
    10    1   10 1
    11    1   11 1
    12    2   12 1
    13    2   13 1
    14    3   14 1
    15    5   15 1
    16    5   16 1
    17    5   17 1
    18    6   18 1
    19    6   19 1
    20    6   20 1
    21    7   21 1
    22    7   22 1
    23    7   23 1
@<TRIPOS>SUBSTRUCTURE
     1 <0>         1 GROUP 0 A     ****
