@<TRIPOS>MOLECULE
AlkEthOH_c354
   28    27     1     0     0
SMALL
USER_CHARGES

@<TRIPOS>ATOM
      1 C1         -0.9060   -2.5033    0.9973 CT        1 <0>       -0.09449
      2 C2          1.0855   -1.9155    2.3930 CT        1 <0>       -0.09449
      3 C3         -0.9148    2.4627   -0.2859 CT        1 <0>       -0.12474
      4 C4         -0.8717    1.6167   -2.6531 CT        1 <0>       -0.12474
      5 C5          0.1716   -0.2526    0.6810 CT        1 <0>       -0.10125
      6 C6          0.4202   -1.7379    1.0275 CT        1 <0>       -0.06352
      7 C7         -0.4461   -0.0144   -0.7074 CT        1 <0>        0.15292
      8 C8         -0.3036    1.4337   -1.2416 CT        1 <0>        0.11793
      9 O1         -1.8330   -0.3603   -0.6427 OH        1 <0>       -0.59685
     10 O2          1.1060    1.7029   -1.3087 OH        1 <0>       -0.59757
     11 H1         -1.6033   -2.1030    1.7408 HC        1 <0>        0.03535
     12 H2         -0.7563   -3.5674    1.2100 HC        1 <0>        0.03535
     13 H3         -1.3828   -2.4178    0.0150 HC        1 <0>        0.03535
     14 H4          0.4732   -1.4892    3.1930 HC        1 <0>        0.03535
     15 H5          1.2547   -2.9738    2.6177 HC        1 <0>        0.03535
     16 H6          2.0544   -1.4051    2.4224 HC        1 <0>        0.03535
     17 H7         -0.5135    2.3385    0.7263 HC        1 <0>        0.04529
     18 H8         -0.6592    3.4830   -0.5951 HC        1 <0>        0.04529
     19 H9         -2.0056    2.3887   -0.2418 HC        1 <0>        0.04529
     20 H10        -0.4381    0.8828   -3.3428 HC        1 <0>        0.04529
     21 H11        -0.6672    2.6144   -3.0522 HC        1 <0>        0.04529
     22 H12        -1.9536    1.4464   -2.6725 HC        1 <0>        0.04529
     23 H13        -0.5041    0.1517    1.4446 HC        1 <0>        0.05419
     24 H14         1.1180    0.2936    0.7660 HC        1 <0>        0.05419
     25 H15         1.0740   -2.1811    0.2662 HC        1 <0>        0.04904
     26 H16         0.0089   -0.6974   -1.4342 H1        1 <0>        0.08602
     27 H17        -2.2252    0.2183    0.0272 HO        1 <0>        0.39731
     28 H18         1.1874    2.6063   -1.6426 HO        1 <0>        0.40221
@<TRIPOS>BOND
     1    1    6 1
     2    2    6 1
     3    3    8 1
     4    4    8 1
     5    5    6 1
     6    5    7 1
     7    7    8 1
     8    7    9 1
     9    8   10 1
    10    1   11 1
    11    1   12 1
    12    1   13 1
    13    2   14 1
    14    2   15 1
    15    2   16 1
    16    3   17 1
    17    3   18 1
    18    3   19 1
    19    4   20 1
    20    4   21 1
    21    4   22 1
    22    5   23 1
    23    5   24 1
    24    6   25 1
    25    7   26 1
    26    9   27 1
    27   10   28 1
@<TRIPOS>SUBSTRUCTURE
     1 <0>         1 GROUP 0 A     ****
