@<TRIPOS>MOLECULE
AlkEthOH_r6
   13    13     1     0     0
SMALL
USER_CHARGES

@<TRIPOS>ATOM
      1 C1         -0.2644    1.3360    0.1107 CT        1 <0>        0.11474
      2 C2         -0.6247    0.2141    1.0533 CT        1 <0>        0.31864
      3 C3          0.4236   -0.6190   -0.7825 CT        1 <0>        0.51555
      4 O1          0.7758    0.7673   -0.6872 OS        1 <0>       -0.41488
      5 O2         -0.5171   -0.9568    0.2457 OS        1 <0>       -0.50587
      6 O3          0.3055    0.1878    2.1291 OH        1 <0>       -0.60703
      7 O4         -0.0987   -0.9294   -2.0691 OH        1 <0>       -0.61783
      8 H1         -1.0965    1.5889   -0.5550 H1        1 <0>        0.07991
      9 H2          0.1022    2.2371    0.6092 H1        1 <0>        0.07991
     10 H3         -1.6358    0.3189    1.4579 H2        1 <0>        0.07765
     11 H4          1.3329   -1.2084   -0.6220 H3        1 <0>        0.10908
     12 H5          0.0402   -0.5436    2.7094 HO        1 <0>        0.42702
     13 H6         -0.3137   -1.8757   -2.0616 HO        1 <0>        0.42311
@<TRIPOS>BOND
     1    1    2 1
     2    1    4 1
     3    2    5 1
     4    2    6 1
     5    3    4 1
     6    3    5 1
     7    3    7 1
     8    1    8 1
     9    1    9 1
    10    2   10 1
    11    3   11 1
    12    6   12 1
    13    7   13 1
@<TRIPOS>SUBSTRUCTURE
     1 <0>         1 GROUP 0 A     ****
