@<TRIPOS>MOLECULE
AlkEthOH_r609
   27    27     1     0     0
SMALL
USER_CHARGES

@<TRIPOS>ATOM
      1 C1          1.1148   -1.4586   -0.2400 CT        1 <0>       -0.17188
      2 C2          0.9240   -1.5370    1.2747 CT        1 <0>        0.13196
      3 C3         -1.2551   -0.5836    1.0934 CT        1 <0>        0.10500
      4 C4         -1.2325    0.5649    0.0733 CT        1 <0>        0.14466
      5 C5          1.0071   -0.0499   -0.8408 CT        1 <0>        0.36168
      6 C6         -0.9135    1.9143    0.7338 CT        1 <0>       -0.09782
      7 C7         -2.6308    0.6664   -0.5612 CT        1 <0>       -0.09782
      8 C8          1.6118   -0.0776   -2.2519 CT        1 <0>       -0.11164
      9 O1         -0.0307   -0.6358    1.8124 OS        1 <0>       -0.40420
     10 O2         -0.3593    0.3286   -1.0346 OS        1 <0>       -0.41951
     11 O3          1.7643    0.8682   -0.0591 OH        1 <0>       -0.60200
     12 H1          2.0987   -1.8943   -0.4568 HC        1 <0>        0.06221
     13 H2          0.3743   -2.1086   -0.7241 HC        1 <0>        0.06221
     14 H3          0.6509   -2.5584    1.5647 H1        1 <0>        0.04403
     15 H4          1.8753   -1.3166    1.7719 H1        1 <0>        0.04403
     16 H5         -2.0408   -0.3983    1.8351 H1        1 <0>        0.05325
     17 H6         -1.4769   -1.5508    0.6262 H1        1 <0>        0.05325
     18 H7         -0.9083    2.6935   -0.0225 HC        1 <0>        0.04701
     19 H8          0.0618    1.8618    1.2081 HC        1 <0>        0.04701
     20 H9         -1.6695    2.1377    1.4807 HC        1 <0>        0.04701
     21 H10        -2.6366    1.4734   -1.2863 HC        1 <0>        0.04701
     22 H11        -3.3618    0.8670    0.2149 HC        1 <0>        0.04701
     23 H12        -2.8685   -0.2702   -1.0544 HC        1 <0>        0.04701
     24 H13         1.5441    0.9125   -2.6931 HC        1 <0>        0.05138
     25 H14         1.0639   -0.7866   -2.8655 HC        1 <0>        0.05138
     26 H15         2.6537   -0.3780   -2.1922 HC        1 <0>        0.05138
     27 H16         2.6829    0.5568   -0.0776 HO        1 <0>        0.40639
@<TRIPOS>BOND
     1    1    2 1
     2    1    5 1
     3    2    9 1
     4    3    4 1
     5    3    9 1
     6    4    6 1
     7    4    7 1
     8    4   10 1
     9    5    8 1
    10    5   10 1
    11    5   11 1
    12    1   12 1
    13    1   13 1
    14    2   14 1
    15    2   15 1
    16    3   16 1
    17    3   17 1
    18    6   18 1
    19    6   19 1
    20    6   20 1
    21    7   21 1
    22    7   22 1
    23    7   23 1
    24    8   24 1
    25    8   25 1
    26    8   26 1
    27   11   27 1
@<TRIPOS>SUBSTRUCTURE
     1 <0>         1 GROUP 0 A     ****
