@<TRIPOS>MOLECULE
AlkEthOH_r764
   27    27     1     0     0
SMALL
USER_CHARGES

@<TRIPOS>ATOM
      1 C1          1.4318   -0.1723   -1.8674 CT        1 <0>       -0.10903
      2 C2          2.1472   -1.0097   -0.8060 CT        1 <0>       -0.08984
      3 C3         -0.0109   -0.5919   -2.1491 CT        1 <0>        0.12824
      4 C4          1.4706   -1.0510    0.5614 CT        1 <0>        0.13560
      5 C5         -1.0075    0.5852   -0.3006 CT        1 <0>        0.13860
      6 C6         -0.3296    0.4929    1.0939 CT        1 <0>        0.33052
      7 C7         -2.5161    0.8250   -0.2329 CT        1 <0>       -0.10265
      8 C8         -0.4486    1.8321    1.8341 CT        1 <0>       -0.11673
      9 O1         -0.8403   -0.6583   -0.9932 OS        1 <0>       -0.40464
     10 O2          1.0847    0.2552    0.9779 OS        1 <0>       -0.46095
     11 O3         -0.9814   -0.5071    1.8818 OH        1 <0>       -0.60203
     12 H1          1.4652    0.8803   -1.5644 HC        1 <0>        0.04829
     13 H2          2.0003   -0.2318   -2.8036 HC        1 <0>        0.04829
     14 H3          2.2885   -2.0346   -1.1685 HC        1 <0>        0.04291
     15 H4          3.1502   -0.5821   -0.6802 HC        1 <0>        0.04291
     16 H5         -0.4682    0.0853   -2.8800 H1        1 <0>        0.04547
     17 H6         -0.0128   -1.5916   -2.5969 H1        1 <0>        0.04547
     18 H7          0.6400   -1.7643    0.5694 H1        1 <0>        0.05721
     19 H8          2.1937   -1.4227    1.2962 H1        1 <0>        0.05721
     20 H9         -0.5605    1.4049   -0.8762 H1        1 <0>        0.05162
     21 H10        -2.9900    0.0259    0.3337 HC        1 <0>        0.04840
     22 H11        -2.9304    0.8448   -1.2389 HC        1 <0>        0.04840
     23 H12        -2.7151    1.7769    0.2553 HC        1 <0>        0.04840
     24 H13         0.0295    1.7517    2.8062 HC        1 <0>        0.05336
     25 H14        -1.4978    2.0806    1.9655 HC        1 <0>        0.05336
     26 H15         0.0386    2.6105    1.2537 HC        1 <0>        0.05336
     27 H16        -0.5222   -0.5225    2.7342 HO        1 <0>        0.40825
@<TRIPOS>BOND
     1    1    2 1
     2    1    3 1
     3    2    4 1
     4    3    9 1
     5    4   10 1
     6    5    6 1
     7    5    7 1
     8    5    9 1
     9    6    8 1
    10    6   10 1
    11    6   11 1
    12    1   12 1
    13    1   13 1
    14    2   14 1
    15    2   15 1
    16    3   16 1
    17    3   17 1
    18    4   18 1
    19    4   19 1
    20    5   20 1
    21    7   21 1
    22    7   22 1
    23    7   23 1
    24    8   24 1
    25    8   25 1
    26    8   26 1
    27   11   27 1
@<TRIPOS>SUBSTRUCTURE
     1 <0>         1 GROUP 0 A     ****
