@<TRIPOS>MOLECULE
AlkEthOH_r227
   29    29     1     0     0
SMALL
USER_CHARGES

@<TRIPOS>ATOM
      1 C1         -1.3105   -0.2721    1.7975 CT        1 <0>       -0.06952
      2 C2         -1.5151    1.2090    1.4594 CT        1 <0>       -0.09878
      3 C3         -1.3260   -1.2056    0.5800 CT        1 <0>       -0.06783
      4 C4          1.1286   -0.6078   -0.1274 CT        1 <0>       -0.13386
      5 C5         -0.3934    1.8296    0.6357 CT        1 <0>        0.13279
      6 C6          0.0487   -1.6780    0.0876 CT        1 <0>        0.15083
      7 C7          0.7762    0.5556   -1.0811 CT        1 <0>        0.16332
      8 C8          0.4547    0.0196   -2.4854 CT        1 <0>       -0.10449
      9 C9          1.9679    1.5206   -1.2059 CT        1 <0>       -0.10449
     10 O1         -0.3929    1.2736   -0.6729 OS        1 <0>       -0.41972
     11 O2          0.5618   -2.6446    1.0124 OH        1 <0>       -0.60570
     12 H1         -0.3984   -0.4047    2.3900 HC        1 <0>        0.04392
     13 H2         -2.1417   -0.5644    2.4529 HC        1 <0>        0.04392
     14 H3         -2.4656    1.3201    0.9230 HC        1 <0>        0.04695
     15 H4         -1.6080    1.7671    2.3989 HC        1 <0>        0.04695
     16 H5         -1.8923   -2.1017    0.8690 HC        1 <0>        0.05744
     17 H6         -1.8874   -0.7512   -0.2441 HC        1 <0>        0.05744
     18 H7          1.4335   -0.2217    0.8530 HC        1 <0>        0.04955
     19 H8          2.0308   -1.1120   -0.5029 HC        1 <0>        0.04955
     20 H9         -0.5922    2.9010    0.5238 H1        1 <0>        0.03857
     21 H10         0.5651    1.7365    1.1539 H1        1 <0>        0.03857
     22 H11        -0.1059   -2.2262   -0.8624 H1        1 <0>        0.02771
     23 H12         0.2101    0.8504   -3.1398 HC        1 <0>        0.04375
     24 H13        -0.3908   -0.6586   -2.4262 HC        1 <0>        0.04375
     25 H14         1.3192   -0.5088   -2.8750 HC        1 <0>        0.04375
     26 H15         1.7041    2.3305   -1.8781 HC        1 <0>        0.04375
     27 H16         2.8242    0.9831   -1.6000 HC        1 <0>        0.04375
     28 H17         2.2076    1.9221   -0.2267 HC        1 <0>        0.04375
     29 H18         1.4240   -2.9145    0.6667 HO        1 <0>        0.39438
@<TRIPOS>BOND
     1    1    2 1
     2    1    3 1
     3    2    5 1
     4    3    6 1
     5    4    6 1
     6    4    7 1
     7    5   10 1
     8    6   11 1
     9    7    8 1
    10    7    9 1
    11    7   10 1
    12    1   12 1
    13    1   13 1
    14    2   14 1
    15    2   15 1
    16    3   16 1
    17    3   17 1
    18    4   18 1
    19    4   19 1
    20    5   20 1
    21    5   21 1
    22    6   22 1
    23    8   23 1
    24    8   24 1
    25    8   25 1
    26    9   26 1
    27    9   27 1
    28    9   28 1
    29   11   29 1
@<TRIPOS>SUBSTRUCTURE
     1 <0>         1 GROUP 0 A     ****
