@<TRIPOS>MOLECULE
AlkEthOH_r1024
   24    24     1     0     0
SMALL
USER_CHARGES

@<TRIPOS>ATOM
      1 C1         -0.8317    1.2005    1.2615 CT        1 <0>       -0.12051
      2 C2         -0.1056   -1.6686   -0.6721 CT        1 <0>       -0.17809
      3 C3         -1.0973   -0.2238    1.7501 CT        1 <0>        0.13046
      4 C4          0.0810   -2.0766    0.7892 CT        1 <0>        0.14109
      5 C5         -0.3751    1.2769   -0.2029 CT        1 <0>        0.14990
      6 C6          0.8602   -0.5760   -1.1498 CT        1 <0>        0.34659
      7 C7         -0.1481    2.7293   -0.6114 CT        1 <0>       -0.10148
      8 O1          0.1048   -0.9860    1.7042 OS        1 <0>       -0.40513
      9 O2          0.8760    0.6009   -0.3421 OS        1 <0>       -0.39488
     10 O3          0.6359   -0.2766   -2.5267 OH        1 <0>       -0.62717
     11 H1         -1.7393    1.7994    1.3993 HC        1 <0>        0.05927
     12 H2         -0.0462    1.6322    1.8955 HC        1 <0>        0.05927
     13 H3          0.0044   -2.5532   -1.3120 HC        1 <0>        0.05626
     14 H4         -1.1384   -1.3377   -0.8302 HC        1 <0>        0.05626
     15 H5         -1.4096   -0.1817    2.7992 H1        1 <0>        0.03759
     16 H6         -1.9153   -0.6926    1.1919 H1        1 <0>        0.03759
     17 H7         -0.7006   -2.7838    1.0912 H1        1 <0>        0.04706
     18 H8          1.0389   -2.5972    0.8949 H1        1 <0>        0.04706
     19 H9         -1.1446    0.8567   -0.8603 H1        1 <0>        0.04806
     20 H10         1.8891   -0.9911   -1.0810 H2        1 <0>        0.06922
     21 H11         0.6137    3.1786    0.0245 HC        1 <0>        0.04499
     22 H12        -1.0747    3.2926   -0.5079 HC        1 <0>        0.04499
     23 H13         0.1821    2.7754   -1.6485 HC        1 <0>        0.04499
     24 H14         0.7875   -1.1001   -3.0151 HO        1 <0>        0.40661
@<TRIPOS>BOND
     1    1    3 1
     2    1    5 1
     3    2    4 1
     4    2    6 1
     5    3    8 1
     6    4    8 1
     7    5    7 1
     8    5    9 1
     9    6    9 1
    10    6   10 1
    11    1   11 1
    12    1   12 1
    13    2   13 1
    14    2   14 1
    15    3   15 1
    16    3   16 1
    17    4   17 1
    18    4   18 1
    19    5   19 1
    20    6   20 1
    21    7   21 1
    22    7   22 1
    23    7   23 1
    24   10   24 1
@<TRIPOS>SUBSTRUCTURE
     1 <0>         1 GROUP 0 A     ****
