@<TRIPOS>MOLECULE
AlkEthOH_c1061
   22    21     1     0     0
SMALL
USER_CHARGES

@<TRIPOS>ATOM
      1 C1         -1.3826    0.2369    2.8651 CT        1 <0>       -0.09275
      2 C2          1.9630   -0.1274   -0.8649 CT        1 <0>       -0.14153
      3 C3         -0.6185   -0.7920   -2.5209 CT        1 <0>        0.13171
      4 C4         -1.2098    0.3138    1.3555 CT        1 <0>       -0.07920
      5 C5          0.2550    0.0973    0.9499 CT        1 <0>       -0.09651
      6 C6          0.4780    0.1238   -0.5776 CT        1 <0>        0.34700
      7 O1          0.1118    1.4267   -1.0353 OH        1 <0>       -0.62276
      8 O2         -0.3507   -0.9072   -1.1312 OS        1 <0>       -0.42174
      9 H1         -0.7531    0.9851    3.3569 HC        1 <0>        0.03224
     10 H2         -1.0959   -0.7495    3.2431 HC        1 <0>        0.03224
     11 H3         -2.4221    0.4264    3.1512 HC        1 <0>        0.03224
     12 H4          2.1669   -0.1171   -1.9406 HC        1 <0>        0.04891
     13 H5          2.5939    0.6393   -0.4026 HC        1 <0>        0.04891
     14 H6          2.2890   -1.0855   -0.4453 HC        1 <0>        0.04891
     15 H7         -1.2541   -1.6216   -2.8403 H1        1 <0>        0.03729
     16 H8          0.3225   -0.8050   -3.0765 H1        1 <0>        0.03729
     17 H9         -1.1357    0.1525   -2.7061 H1        1 <0>        0.03729
     18 H10        -1.8489   -0.4434    0.8874 HC        1 <0>        0.05346
     19 H11        -1.5578    1.2932    1.0085 HC        1 <0>        0.05346
     20 H12         0.8625    0.8800    1.4224 HC        1 <0>        0.05012
     21 H13         0.5861   -0.8698    1.3500 HC        1 <0>        0.05012
     22 H14         0.6551    2.0804   -0.5642 HO        1 <0>        0.41330
@<TRIPOS>BOND
     1    1    4 1
     2    2    6 1
     3    3    8 1
     4    4    5 1
     5    5    6 1
     6    6    7 1
     7    6    8 1
     8    1    9 1
     9    1   10 1
    10    1   11 1
    11    2   12 1
    12    2   13 1
    13    2   14 1
    14    3   15 1
    15    3   16 1
    16    3   17 1
    17    4   18 1
    18    4   19 1
    19    5   20 1
    20    5   21 1
    21    7   22 1
@<TRIPOS>SUBSTRUCTURE
     1 <0>         1 GROUP 0 A     ****
