@<TRIPOS>MOLECULE
AlkEthOH_c1200
   25    24     1     0     0
SMALL
USER_CHARGES

@<TRIPOS>ATOM
      1 C1          4.6446   -2.4138    1.2308 CT        1 <0>       -0.09647
      2 C2          2.7372   -1.0343   -3.9080 CT        1 <0>       -0.09647
      3 C3          0.8744   -0.5011    0.4304 CT        1 <0>       -0.10972
      4 C4          2.2795    1.3868   -0.3616 CT        1 <0>       -0.10972
      5 C5          3.3638   -2.0499    0.5105 CT        1 <0>        0.13437
      6 C6          3.0675   -0.4320   -2.5590 CT        1 <0>        0.13437
      7 C7          2.1510   -0.1426   -0.3425 CT        1 <0>        0.34530
      8 O1          3.3175   -0.6412    0.3318 OS        1 <0>       -0.45076
      9 O2          1.9818   -0.6610   -1.6715 OS        1 <0>       -0.45076
     10 H1          5.5193   -2.1067    0.6507 HC        1 <0>        0.04280
     11 H2          4.6852   -1.9322    2.2133 HC        1 <0>        0.04280
     12 H3          4.6967   -3.4939    1.4034 HC        1 <0>        0.04280
     13 H4          2.5760   -2.1127   -3.8249 HC        1 <0>        0.04280
     14 H5          1.8364   -0.5734   -4.3264 HC        1 <0>        0.04280
     15 H6          3.5483   -0.8522   -4.6208 HC        1 <0>        0.04280
     16 H7          0.7263   -1.5849    0.4791 HC        1 <0>        0.05223
     17 H8          0.9039   -0.0964    1.4483 HC        1 <0>        0.05223
     18 H9         -0.0117   -0.0653   -0.0449 HC        1 <0>        0.05223
     19 H10         3.1764    1.7069   -0.9019 HC        1 <0>        0.05223
     20 H11         1.3990    1.8500   -0.8209 HC        1 <0>        0.05223
     21 H12         2.3411    1.7915    0.6548 HC        1 <0>        0.05223
     22 H13         2.4930   -2.3597    1.0960 H1        1 <0>        0.03242
     23 H14         3.3253   -2.5313   -0.4712 H1        1 <0>        0.03242
     24 H15         3.2275    0.6466   -2.6491 H1        1 <0>        0.03242
     25 H16         3.9672   -0.8942   -2.1420 H1        1 <0>        0.03242
@<TRIPOS>BOND
     1    1    5 1
     2    2    6 1
     3    3    7 1
     4    4    7 1
     5    5    8 1
     6    6    9 1
     7    7    8 1
     8    7    9 1
     9    1   10 1
    10    1   11 1
    11    1   12 1
    12    2   13 1
    13    2   14 1
    14    2   15 1
    15    3   16 1
    16    3   17 1
    17    3   18 1
    18    4   19 1
    19    4   20 1
    20    4   21 1
    21    5   22 1
    22    5   23 1
    23    6   24 1
    24    6   25 1
@<TRIPOS>SUBSTRUCTURE
     1 <0>         1 GROUP 0 A     ****
