@<TRIPOS>MOLECULE
AlkEthOH_c181
   29    28     1     0     0
SMALL
USER_CHARGES

@<TRIPOS>ATOM
      1 C1         -0.4829   -2.3609   -0.0950 CT        1 <0>       -0.10482
      2 C2         -2.8894   -1.6748   -0.3130 CT        1 <0>       -0.10482
      3 C3         -1.2041   -0.8769   -1.9957 CT        1 <0>       -0.10482
      4 C4          0.7014    0.3726    1.6219 CT        1 <0>       -0.12415
      5 C5          0.0999    1.9098   -0.2296 CT        1 <0>       -0.12415
      6 C6          2.3838   -0.0672   -0.5749 CT        1 <0>        0.33084
      7 C7         -1.4385   -1.2519   -0.5331 CT        1 <0>        0.18398
      8 C8          0.1286    0.4352    0.1992 CT        1 <0>        0.37172
      9 O1          2.9613   -0.9246    0.3968 OH        1 <0>       -0.61887
     10 O2          0.9801   -0.2395   -0.7409 OS        1 <0>       -0.48046
     11 O3         -1.2000   -0.1054    0.2717 OS        1 <0>       -0.44179
     12 H1          0.5595   -2.0612   -0.2514 HC        1 <0>        0.04237
     13 H2         -0.6170   -2.6148    0.9615 HC        1 <0>        0.04237
     14 H3         -0.6366   -3.2676   -0.6912 HC        1 <0>        0.04237
     15 H4         -3.5786   -0.8821   -0.6260 HC        1 <0>        0.04237
     16 H5         -3.0869   -1.8535    0.7501 HC        1 <0>        0.04237
     17 H6         -3.1335   -2.5858   -0.8689 HC        1 <0>        0.04237
     18 H7         -1.8895   -0.0816   -2.3102 HC        1 <0>        0.04237
     19 H8         -0.1777   -0.5357   -2.1650 HC        1 <0>        0.04237
     20 H9         -1.3999   -1.7317   -2.6533 HC        1 <0>        0.04237
     21 H10         0.7460   -0.6614    1.9827 HC        1 <0>        0.05064
     22 H11         0.1070    0.9704    2.3208 HC        1 <0>        0.05064
     23 H12         1.7308    0.7465    1.6521 HC        1 <0>        0.05064
     24 H13        -0.3018    2.0197   -1.2432 HC        1 <0>        0.05064
     25 H14         1.1110    2.3316   -0.2555 HC        1 <0>        0.05064
     26 H15        -0.5224    2.5109    0.4417 HC        1 <0>        0.05064
     27 H16         2.8444   -0.3214   -1.5342 H2        1 <0>        0.06075
     28 H17         2.6465    0.9750   -0.3684 H2        1 <0>        0.06075
     29 H18         3.9119   -0.7235    0.4270 HO        1 <0>        0.41067
@<TRIPOS>BOND
     1    1    7 1
     2    2    7 1
     3    3    7 1
     4    4    8 1
     5    5    8 1
     6    6    9 1
     7    6   10 1
     8    7   11 1
     9    8   10 1
    10    8   11 1
    11    1   12 1
    12    1   13 1
    13    1   14 1
    14    2   15 1
    15    2   16 1
    16    2   17 1
    17    3   18 1
    18    3   19 1
    19    3   20 1
    20    4   21 1
    21    4   22 1
    22    4   23 1
    23    5   24 1
    24    5   25 1
    25    5   26 1
    26    6   27 1
    27    6   28 1
    28    9   29 1
@<TRIPOS>SUBSTRUCTURE
     1 <0>         1 GROUP 0 A     ****
