@<TRIPOS>MOLECULE
AlkEthOH_r1067
   29    29     1     0     0
SMALL
USER_CHARGES

@<TRIPOS>ATOM
      1 C1          2.2044   -0.1406   -0.1331 CT        1 <0>       -0.08877
      2 C2          1.1147   -1.1429   -0.5340 CT        1 <0>       -0.09482
      3 C3          1.7533    1.0103    0.7588 CT        1 <0>        0.12764
      4 C4         -0.3616    0.9221    1.8708 CT        1 <0>        0.11592
      5 C5         -1.1959    0.0922    0.8910 CT        1 <0>        0.10916
      6 C6         -0.1456   -0.5653   -1.2221 CT        1 <0>        0.15708
      7 C7         -2.6751    0.4310    1.0381 CT        1 <0>       -0.10370
      8 C8         -1.1253   -1.7010   -1.5645 CT        1 <0>       -0.10244
      9 C9          0.2407    0.1376   -2.5335 CT        1 <0>       -0.10244
     10 O1          1.0101    0.5237    1.8725 OS        1 <0>       -0.42140
     11 O2         -0.8196    0.4329   -0.4440 OS        1 <0>       -0.42638
     12 H1          2.9748   -0.7078    0.4058 HC        1 <0>        0.04432
     13 H2          2.6944    0.2648   -1.0254 HC        1 <0>        0.04432
     14 H3          1.5749   -1.8841   -1.2015 HC        1 <0>        0.04882
     15 H4          0.8288   -1.7042    0.3637 HC        1 <0>        0.04882
     16 H5          2.6415    1.5125    1.1582 H1        1 <0>        0.04768
     17 H6          1.2050    1.7669    0.1861 H1        1 <0>        0.04768
     18 H7         -0.4332    1.9968    1.6629 H1        1 <0>        0.05313
     19 H8         -0.7311    0.7604    2.8893 H1        1 <0>        0.05313
     20 H9         -1.0572   -0.9732    1.0965 H1        1 <0>        0.05546
     21 H10        -2.8357    1.4899    0.8372 HC        1 <0>        0.04305
     22 H11        -3.0085    0.2079    2.0512 HC        1 <0>        0.04305
     23 H12        -3.2629   -0.1568    0.3335 HC        1 <0>        0.04305
     24 H13        -2.0035   -1.2834   -2.0458 HC        1 <0>        0.04294
     25 H14        -1.4165   -2.2100   -0.6515 HC        1 <0>        0.04294
     26 H15        -0.6399   -2.4025   -2.2351 HC        1 <0>        0.04294
     27 H16        -0.6525    0.5368   -3.0036 HC        1 <0>        0.04294
     28 H17         0.7137   -0.5779   -3.1987 HC        1 <0>        0.04294
     29 H18         0.9315    0.9465   -2.3175 HC        1 <0>        0.04294
@<TRIPOS>BOND
     1    1    2 1
     2    1    3 1
     3    2    6 1
     4    3   10 1
     5    4    5 1
     6    4   10 1
     7    5    7 1
     8    5   11 1
     9    6    8 1
    10    6    9 1
    11    6   11 1
    12    1   12 1
    13    1   13 1
    14    2   14 1
    15    2   15 1
    16    3   16 1
    17    3   17 1
    18    4   18 1
    19    4   19 1
    20    5   20 1
    21    7   21 1
    22    7   22 1
    23    7   23 1
    24    8   24 1
    25    8   25 1
    26    8   26 1
    27    9   27 1
    28    9   28 1
    29    9   29 1
@<TRIPOS>SUBSTRUCTURE
     1 <0>         1 GROUP 0 A     ****
