@<TRIPOS>MOLECULE
AlkEthOH_c125
   17    16     1     0     0
SMALL
USER_CHARGES

@<TRIPOS>ATOM
      1 C1         -0.5877   -1.9370    0.6464 CT        1 <0>       -0.12977
      2 C2          0.0081    0.9869   -2.1183 CT        1 <0>        0.12304
      3 C3          0.0325   -0.6500    1.1711 CT        1 <0>        0.12012
      4 C4         -0.1404    0.5253    0.2012 CT        1 <0>        0.32217
      5 O1          1.4217   -0.8948    1.3922 OH        1 <0>       -0.59903
      6 O2          0.4290    1.6802    0.8139 OH        1 <0>       -0.61976
      7 O3          0.4943    0.2029   -1.0375 OS        1 <0>       -0.44737
      8 H1         -0.1679   -2.2165   -0.3259 HC        1 <0>        0.05224
      9 H2         -1.6734   -1.8434    0.5485 HC        1 <0>        0.05224
     10 H3         -0.3704   -2.7671    1.3275 HC        1 <0>        0.05224
     11 H4          0.5246    0.7012   -3.0379 H1        1 <0>        0.03574
     12 H5          0.1775    2.0457   -1.9066 H1        1 <0>        0.03574
     13 H6         -1.0633    0.8073   -2.2340 H1        1 <0>        0.03574
     14 H7         -0.4082   -0.3991    2.1427 H1        1 <0>        0.05508
     15 H8         -1.2122    0.7011    0.0428 H2        1 <0>        0.06876
     16 H9          1.4731   -1.6101    2.0440 HO        1 <0>        0.41418
     17 H10        -0.0519    1.8327    1.6450 HO        1 <0>        0.42864
@<TRIPOS>BOND
     1    1    3 1
     2    2    7 1
     3    3    4 1
     4    3    5 1
     5    4    6 1
     6    4    7 1
     7    1    8 1
     8    1    9 1
     9    1   10 1
    10    2   11 1
    11    2   12 1
    12    2   13 1
    13    3   14 1
    14    4   15 1
    15    5   16 1
    16    6   17 1
@<TRIPOS>SUBSTRUCTURE
     1 <0>         1 GROUP 0 A     ****
