@<TRIPOS>MOLECULE
AlkEthOH_c357
   25    24     1     0     0
SMALL
USER_CHARGES

@<TRIPOS>ATOM
      1 C1         -1.3349    0.3336   -1.9382 CT        1 <0>       -0.09284
      2 C2         -2.3014    1.6873   -0.0679 CT        1 <0>       -0.09284
      3 C3          0.9951   -1.1383    2.0540 CT        1 <0>       -0.12740
      4 C4          0.1230    1.0414    0.0289 CT        1 <0>       -0.11007
      5 C5         -1.2788    0.6082   -0.4352 CT        1 <0>       -0.06420
      6 C6          1.1233   -1.2939    0.5430 CT        1 <0>        0.15105
      7 C7          1.2555    0.0347   -0.2175 CT        1 <0>        0.14187
      8 O1          2.2922   -2.0701    0.2667 OH        1 <0>       -0.59613
      9 O2          2.4769    0.6815    0.1583 OH        1 <0>       -0.59231
     10 H1         -1.0541    1.2194   -2.5159 HC        1 <0>        0.03529
     11 H2         -0.6390   -0.4665   -2.2129 HC        1 <0>        0.03529
     12 H3         -2.3398    0.0279   -2.2485 HC        1 <0>        0.03529
     13 H4         -2.0664    2.6324   -0.5689 HC        1 <0>        0.03529
     14 H5         -3.3149    1.3912   -0.3591 HC        1 <0>        0.03529
     15 H6         -2.2998    1.8736    1.0113 HC        1 <0>        0.03529
     16 H7          1.8350   -0.5718    2.4698 HC        1 <0>        0.04837
     17 H8          1.0160   -2.1206    2.5389 HC        1 <0>        0.04837
     18 H9          0.0610   -0.6427    2.3324 HC        1 <0>        0.04837
     19 H10         0.3939    1.9850   -0.4657 HC        1 <0>        0.04790
     20 H11         0.0913    1.2927    1.0975 HC        1 <0>        0.04790
     21 H12        -1.5677   -0.3070    0.0946 HC        1 <0>        0.04747
     22 H13         0.2710   -1.8630    0.1583 H1        1 <0>        0.03381
     23 H14         1.3422   -0.1675   -1.2912 H1        1 <0>        0.04840
     24 H15         2.1593   -2.9249    0.7020 HO        1 <0>        0.40210
     25 H16         2.5524    1.4634   -0.4069 HO        1 <0>        0.39844
@<TRIPOS>BOND
     1    1    5 1
     2    2    5 1
     3    3    6 1
     4    4    5 1
     5    4    7 1
     6    6    7 1
     7    6    8 1
     8    7    9 1
     9    1   10 1
    10    1   11 1
    11    1   12 1
    12    2   13 1
    13    2   14 1
    14    2   15 1
    15    3   16 1
    16    3   17 1
    17    3   18 1
    18    4   19 1
    19    4   20 1
    20    5   21 1
    21    6   22 1
    22    7   23 1
    23    8   24 1
    24    9   25 1
@<TRIPOS>SUBSTRUCTURE
     1 <0>         1 GROUP 0 A     ****
