@<TRIPOS>MOLECULE
AlkEthOH_c157
   27    26     1     0     0
SMALL
USER_CHARGES

@<TRIPOS>ATOM
      1 C1          0.4876    2.5288    0.4160 CT        1 <0>       -0.08570
      2 C2         -0.7645    0.8833    1.8066 CT        1 <0>       -0.08570
      3 C3          1.5479    0.3523    1.0808 CT        1 <0>       -0.08570
      4 C4         -0.9225   -1.5828   -2.1488 CT        1 <0>       -0.12454
      5 C5         -0.5327   -2.1116    0.2540 CT        1 <0>       -0.12454
      6 C6         -0.3895    0.3243   -0.6044 CT        1 <0>       -0.05623
      7 C7          0.2389    1.0306    0.6373 CT        1 <0>       -0.04595
      8 C8         -0.1401   -1.1793   -0.8883 CT        1 <0>        0.15370
      9 O1          1.2429   -1.4034   -1.1688 OH        1 <0>       -0.59691
     10 H1          1.1950    2.6927   -0.4055 HC        1 <0>        0.03445
     11 H2          0.9115    2.9961    1.3116 HC        1 <0>        0.03445
     12 H3         -0.4316    3.0605    0.1529 HC        1 <0>        0.03445
     13 H4         -0.9810   -0.1715    2.0110 HC        1 <0>        0.03445
     14 H5         -1.7135    1.3828    1.5806 HC        1 <0>        0.03445
     15 H6         -0.3715    1.3268    2.7287 HC        1 <0>        0.03445
     16 H7          1.3962   -0.7212    1.2458 HC        1 <0>        0.03445
     17 H8          1.9340    0.7573    2.0177 HC        1 <0>        0.03445
     18 H9          2.3281    0.4595    0.3192 HC        1 <0>        0.03445
     19 H10        -0.6664   -0.9334   -2.9940 HC        1 <0>        0.04223
     20 H11        -0.7202   -2.6204   -2.4339 HC        1 <0>        0.04223
     21 H12        -2.0018   -1.4704   -1.9931 HC        1 <0>        0.04223
     22 H13         0.0093   -1.8503    1.1713 HC        1 <0>        0.04223
     23 H14        -0.3116   -3.1572    0.0185 HC        1 <0>        0.04223
     24 H15        -1.5908   -2.0102    0.5108 HC        1 <0>        0.04223
     25 H16        -0.0296    0.8676   -1.4910 HC        1 <0>        0.04701
     26 H17        -1.4751    0.4949   -0.5752 HC        1 <0>        0.04701
     27 H18         1.3312   -2.3475   -1.3674 HO        1 <0>        0.39412
@<TRIPOS>BOND
     1    1    7 1
     2    2    7 1
     3    3    7 1
     4    4    8 1
     5    5    8 1
     6    6    7 1
     7    6    8 1
     8    8    9 1
     9    1   10 1
    10    1   11 1
    11    1   12 1
    12    2   13 1
    13    2   14 1
    14    2   15 1
    15    3   16 1
    16    3   17 1
    17    3   18 1
    18    4   19 1
    19    4   20 1
    20    4   21 1
    21    5   22 1
    22    5   23 1
    23    5   24 1
    24    6   25 1
    25    6   26 1
    26    9   27 1
@<TRIPOS>SUBSTRUCTURE
     1 <0>         1 GROUP 0 A     ****
