@<TRIPOS>MOLECULE
AlkEthOH_r58
   15    15     1     0     0
SMALL
USER_CHARGES

@<TRIPOS>ATOM
      1 C1         -0.2457    0.8538   -0.9315 CT        1 <0>       -0.07954
      2 C2         -1.2679    0.0346   -0.1465 CT        1 <0>       -0.07949
      3 C3          1.1261    0.4809   -0.3704 CT        1 <0>       -0.07949
      4 C4         -0.4578   -1.0394    0.5622 CT        1 <0>       -0.07949
      5 C5          0.8452   -0.3299    0.8861 CT        1 <0>       -0.07949
      6 H1         -0.2939    0.6216   -2.0010 HC        1 <0>        0.03975
      7 H2         -0.4438    1.9254   -0.8209 HC        1 <0>        0.03975
      8 H3         -1.7643    0.6757    0.5918 HC        1 <0>        0.03975
      9 H4         -2.0428   -0.3896   -0.7920 HC        1 <0>        0.03975
     10 H5          1.6661   -0.1349   -1.0998 HC        1 <0>        0.03975
     11 H6          1.7403    1.3619   -0.1613 HC        1 <0>        0.03975
     12 H7         -0.9615   -1.4188    1.4556 HC        1 <0>        0.03975
     13 H8         -0.2738   -1.8833   -0.1131 HC        1 <0>        0.03975
     14 H9          1.6549   -1.0272    1.1195 HC        1 <0>        0.03975
     15 H10         0.7094    0.3391    1.7440 HC        1 <0>        0.03975
@<TRIPOS>BOND
     1    1    2 1
     2    1    3 1
     3    2    4 1
     4    3    5 1
     5    4    5 1
     6    1    6 1
     7    1    7 1
     8    2    8 1
     9    2    9 1
    10    3   10 1
    11    3   11 1
    12    4   12 1
    13    4   13 1
    14    5   14 1
    15    5   15 1
@<TRIPOS>SUBSTRUCTURE
     1 <0>         1 GROUP 0 A     ****
