@<TRIPOS>MOLECULE
AlkEthOH_c530
   26    25     1     0     0
SMALL
USER_CHARGES

@<TRIPOS>ATOM
      1 C1          2.6984   -1.6629    0.6330 CT        1 <0>       -0.10541
      2 C2          2.3312   -1.4041   -1.8469 CT        1 <0>       -0.10541
      3 C3          0.3969    0.9248    1.2185 CT        1 <0>       -0.11385
      4 C4         -3.4680   -1.1524   -0.8382 CT        1 <0>        0.12070
      5 C5         -1.6058   -0.1369    0.1735 CT        1 <0>        0.10923
      6 C6          1.9721   -0.8935   -0.4597 CT        1 <0>        0.14567
      7 C7         -0.1267    0.2159   -0.0329 CT        1 <0>        0.34930
      8 O1         -0.0154    1.1237   -1.1304 OH        1 <0>       -0.62111
      9 O2         -2.0941   -0.8226   -0.9765 OS        1 <0>       -0.42168
     10 O3          0.5706   -1.0157   -0.2648 OS        1 <0>       -0.44431
     11 H1          2.4688   -2.7318    0.5859 HC        1 <0>        0.04083
     12 H2          3.7816   -1.5329    0.5350 HC        1 <0>        0.04083
     13 H3          2.4259   -1.2894    1.6263 HC        1 <0>        0.04083
     14 H4          2.0929   -2.4668   -1.9531 HC        1 <0>        0.04083
     15 H5          3.4003   -1.2642   -2.0395 HC        1 <0>        0.04083
     16 H6          1.7962   -0.8458   -2.6230 HC        1 <0>        0.04083
     17 H7          1.4528    1.1946    1.1117 HC        1 <0>        0.05345
     18 H8          0.2751    0.2967    2.1080 HC        1 <0>        0.05345
     19 H9         -0.1636    1.8449    1.4168 HC        1 <0>        0.05345
     20 H10        -3.8100   -1.6756   -1.7345 H1        1 <0>        0.03533
     21 H11        -4.0501   -0.2389   -0.6923 H1        1 <0>        0.03533
     22 H12        -3.5916   -1.8034    0.0305 H1        1 <0>        0.03533
     23 H13        -1.7363   -0.7984    1.0363 H1        1 <0>        0.04571
     24 H14        -2.2131    0.7649    0.3036 H1        1 <0>        0.04571
     25 H15         2.2221    0.1699   -0.3857 H1        1 <0>        0.05468
     26 H16        -0.5506    1.9090   -0.9261 HO        1 <0>        0.42945
@<TRIPOS>BOND
     1    1    6 1
     2    2    6 1
     3    3    7 1
     4    4    9 1
     5    5    7 1
     6    5    9 1
     7    6   10 1
     8    7    8 1
     9    7   10 1
    10    1   11 1
    11    1   12 1
    12    1   13 1
    13    2   14 1
    14    2   15 1
    15    2   16 1
    16    3   17 1
    17    3   18 1
    18    3   19 1
    19    4   20 1
    20    4   21 1
    21    4   22 1
    22    5   23 1
    23    5   24 1
    24    6   25 1
    25    8   26 1
@<TRIPOS>SUBSTRUCTURE
     1 <0>         1 GROUP 0 A     ****
