@<TRIPOS>MOLECULE
AlkEthOH_r77
   24    24     1     0     0
SMALL
USER_CHARGES

@<TRIPOS>ATOM
      1 C1         -1.0275    0.7594    1.5459 CT        1 <0>       -0.07081
      2 C2         -1.9431   -0.4218    1.1981 CT        1 <0>       -0.10080
      3 C3         -0.4743    1.5116    0.3272 CT        1 <0>       -0.06963
      4 C4          1.3607   -0.3018   -0.0955 CT        1 <0>       -0.13490
      5 C5         -1.2759   -1.5577    0.4298 CT        1 <0>        0.14481
      6 C6          0.9821    1.1832   -0.0342 CT        1 <0>        0.15172
      7 C7          0.5482   -1.1574   -1.0715 CT        1 <0>        0.35412
      8 O1         -0.8545   -1.0932   -0.8467 OS        1 <0>       -0.46410
      9 O2          1.8423    1.7849    0.9403 OH        1 <0>       -0.60663
     10 O3          0.8419   -0.7071   -2.3936 OH        1 <0>       -0.59930
     11 H1         -1.6333    1.4667    2.1276 HC        1 <0>        0.04467
     12 H2         -0.2241    0.4330    2.2155 HC        1 <0>        0.04467
     13 H3         -2.3594   -0.8248    2.1290 HC        1 <0>        0.04773
     14 H4         -2.7874   -0.0409    0.6098 HC        1 <0>        0.04773
     15 H5         -1.1248    1.3699   -0.5430 HC        1 <0>        0.05997
     16 H6         -0.5187    2.5843    0.5607 HC        1 <0>        0.05997
     17 H7          2.4208   -0.3638   -0.3786 HC        1 <0>        0.05807
     18 H8          1.3182   -0.7248    0.9146 HC        1 <0>        0.05807
     19 H9         -0.4645   -2.0121    1.0085 H1        1 <0>        0.04009
     20 H10        -2.0174   -2.3449    0.2541 H1        1 <0>        0.04009
     21 H11         1.2177    1.6571   -0.9941 H1        1 <0>        0.04655
     22 H12         0.8767   -2.2014   -0.9994 H2        1 <0>        0.02555
     23 H13         2.7458    1.5565    0.6793 HO        1 <0>        0.39610
     24 H14         0.3191   -1.2599   -2.9939 HO        1 <0>        0.42626
@<TRIPOS>BOND
     1    1    2 1
     2    1    3 1
     3    2    5 1
     4    3    6 1
     5    4    6 1
     6    4    7 1
     7    5    8 1
     8    6    9 1
     9    7    8 1
    10    7   10 1
    11    1   11 1
    12    1   12 1
    13    2   13 1
    14    2   14 1
    15    3   15 1
    16    3   16 1
    17    4   17 1
    18    4   18 1
    19    5   19 1
    20    5   20 1
    21    6   21 1
    22    7   22 1
    23    9   23 1
    24   10   24 1
@<TRIPOS>SUBSTRUCTURE
     1 <0>         1 GROUP 0 A     ****
