@<TRIPOS>MOLECULE
AlkEthOH_r119
   22    22     1     0     0
SMALL
USER_CHARGES

@<TRIPOS>ATOM
      1 C1         -0.4689    0.6063    1.1413 CT        1 <0>       -0.13592
      2 C2          0.1428    0.1535   -2.2380 CT        1 <0>        0.10602
      3 C3         -1.2357   -0.0933   -1.6355 CT        1 <0>        0.10741
      4 C4          1.5631   -0.0699   -0.3233 CT        1 <0>        0.13051
      5 C5          1.0329    0.3031    1.0617 CT        1 <0>        0.13125
      6 C6         -1.3983   -0.5377    0.7181 CT        1 <0>        0.35298
      7 O1          1.0273    0.8004   -1.3223 OS        1 <0>       -0.40856
      8 O2         -1.1354   -1.0493   -0.5848 OS        1 <0>       -0.46951
      9 O3          1.7315    1.4723    1.5049 OH        1 <0>       -0.59451
     10 O4         -1.2594   -1.5854    1.6780 OH        1 <0>       -0.60083
     11 H1         -0.7000    0.8822    2.1796 HC        1 <0>        0.06648
     12 H2         -0.6802    1.5088    0.5551 HC        1 <0>        0.06648
     13 H3          0.5977   -0.7777   -2.5957 H1        1 <0>        0.05636
     14 H4          0.0369    0.8195   -3.1005 H1        1 <0>        0.05636
     15 H5         -1.7010    0.8395   -1.2992 H1        1 <0>        0.05193
     16 H6         -1.8852   -0.5267   -2.4035 H1        1 <0>        0.05193
     17 H7          2.6512    0.0569   -0.3516 H1        1 <0>        0.06350
     18 H8          1.3614   -1.1233   -0.5484 H1        1 <0>        0.06350
     19 H9          1.2892   -0.5004    1.7690 H1        1 <0>        0.05017
     20 H10        -2.4376   -0.1906    0.7608 H2        1 <0>        0.03074
     21 H11         1.4411    1.6304    2.4144 HO        1 <0>        0.39677
     22 H12        -1.8527   -2.2972    1.3942 HO        1 <0>        0.42694
@<TRIPOS>BOND
     1    1    5 1
     2    1    6 1
     3    2    3 1
     4    2    7 1
     5    3    8 1
     6    4    5 1
     7    4    7 1
     8    5    9 1
     9    6    8 1
    10    6   10 1
    11    1   11 1
    12    1   12 1
    13    2   13 1
    14    2   14 1
    15    3   15 1
    16    3   16 1
    17    4   17 1
    18    4   18 1
    19    5   19 1
    20    6   20 1
    21    9   21 1
    22   10   22 1
@<TRIPOS>SUBSTRUCTURE
     1 <0>         1 GROUP 0 A     ****
