@<TRIPOS>MOLECULE
AlkEthOH_c764
   18    17     1     0     0
SMALL
USER_CHARGES

@<TRIPOS>ATOM
      1 C1          0.3176   -0.5752   -1.5310 CT        1 <0>       -0.11576
      2 C2          0.5495   -1.5760    0.7399 CT        1 <0>        0.11566
      3 C3         -1.4134    1.4292   -0.1994 CT        1 <0>        0.33759
      4 C4          0.3127   -0.2692   -0.0300 CT        1 <0>        0.30775
      5 O1          0.5220   -1.3185    2.1419 OH        1 <0>       -0.59804
      6 O2         -0.5411    2.5299    0.0094 OH        1 <0>       -0.61379
      7 O3          1.3977    0.6011    0.2924 OH        1 <0>       -0.62597
      8 O4         -0.9588    0.2266    0.4109 OS        1 <0>       -0.48511
      9 H1          0.1512    0.3345   -2.1186 HC        1 <0>        0.05528
     10 H2          1.2618   -1.0354   -1.8399 HC        1 <0>        0.05528
     11 H3         -0.4899   -1.2630   -1.8026 HC        1 <0>        0.05528
     12 H4         -0.2344   -2.3090    0.5219 H1        1 <0>        0.06391
     13 H5          1.5293   -2.0035    0.5021 H1        1 <0>        0.06391
     14 H6         -2.3867    1.6778    0.2361 H2        1 <0>        0.05603
     15 H7         -1.5696    1.2954   -1.2729 H2        1 <0>        0.05603
     16 H8          0.6753   -2.1691    2.5815 HO        1 <0>        0.41754
     17 H9         -0.9335    3.2970   -0.4409 HO        1 <0>        0.41974
     18 H10         2.2259    0.1552    0.0479 HO        1 <0>        0.43467
@<TRIPOS>BOND
     1    1    4 1
     2    2    4 1
     3    2    5 1
     4    3    6 1
     5    3    8 1
     6    4    7 1
     7    4    8 1
     8    1    9 1
     9    1   10 1
    10    1   11 1
    11    2   12 1
    12    2   13 1
    13    3   14 1
    14    3   15 1
    15    5   16 1
    16    6   17 1
    17    7   18 1
@<TRIPOS>SUBSTRUCTURE
     1 <0>         1 GROUP 0 A     ****
