@<TRIPOS>MOLECULE
AlkEthOH_r271
   35    35     1     0     0
SMALL
USER_CHARGES

@<TRIPOS>ATOM
      1 C1         -0.1494    2.7395   -0.7552 CT        1 <0>       -0.10941
      2 C2          0.0919   -1.4486   -0.4283 CT        1 <0>       -0.08272
      3 C3          1.0572    2.5421    0.1672 CT        1 <0>        0.13454
      4 C4         -0.6258    1.4446   -1.4089 CT        1 <0>        0.13887
      5 C5          1.7436    0.2920    0.5457 CT        1 <0>        0.13972
      6 C6          1.0693   -1.0904    0.7455 CT        1 <0>       -0.04312
      7 C7         -1.2926   -0.7628   -0.6154 CT        1 <0>        0.16319
      8 C8          0.4130   -1.1807    2.1290 CT        1 <0>       -0.08992
      9 C9          2.2034   -2.1480    0.6983 CT        1 <0>       -0.08992
     10 C10        -2.3267   -1.3006    0.3895 CT        1 <0>       -0.10746
     11 C11        -1.8392   -1.0982   -2.0208 CT        1 <0>       -0.10746
     12 O1          0.8968    1.3649    0.9532 OS        1 <0>       -0.40118
     13 O2         -1.2415    0.6462   -0.3998 OS        1 <0>       -0.39961
     14 H1         -0.9579    3.1843   -0.1679 HC        1 <0>        0.05643
     15 H2          0.1179    3.4644   -1.5306 HC        1 <0>        0.05643
     16 H3          0.6503   -1.3379   -1.3771 HC        1 <0>        0.03839
     17 H4         -0.0972   -2.5355   -0.3586 HC        1 <0>        0.03839
     18 H5          1.9871    2.5171   -0.3857 H1        1 <0>        0.03855
     19 H6          1.0946    3.3698    0.8668 H1        1 <0>        0.03855
     20 H7         -1.2870    1.6544   -2.2556 H1        1 <0>        0.02378
     21 H8          0.2378    0.8825   -1.7806 H1        1 <0>        0.02378
     22 H9          2.6750    0.3572    1.1425 H1        1 <0>        0.02592
     23 H10         2.0682    0.4136   -0.5062 H1        1 <0>        0.02592
     24 H11         1.1483   -0.9205    2.8774 HC        1 <0>        0.03862
     25 H12         0.0655   -2.1928    2.2806 HC        1 <0>        0.03862
     26 H13        -0.4174   -0.4897    2.1628 HC        1 <0>        0.03862
     27 H14         2.9141   -1.9481    1.4939 HC        1 <0>        0.03862
     28 H15         2.7062   -2.0926   -0.2620 HC        1 <0>        0.03862
     29 H16         1.7773   -3.1376    0.8302 HC        1 <0>        0.03862
     30 H17        -3.2728   -0.7987    0.2253 HC        1 <0>        0.04277
     31 H18        -1.9755   -1.1060    1.3958 HC        1 <0>        0.04277
     32 H19        -2.4437   -2.3672    0.2391 HC        1 <0>        0.04277
     33 H20        -2.8053   -0.6212   -2.1549 HC        1 <0>        0.04277
     34 H21        -1.9483   -2.1741   -2.1175 HC        1 <0>        0.04277
     35 H22        -1.1462   -0.7338   -2.7731 HC        1 <0>        0.04277
@<TRIPOS>BOND
     1    1    3 1
     2    1    4 1
     3    2    6 1
     4    2    7 1
     5    3   12 1
     6    4   13 1
     7    5    6 1
     8    5   12 1
     9    6    8 1
    10    6    9 1
    11    7   10 1
    12    7   11 1
    13    7   13 1
    14    1   14 1
    15    1   15 1
    16    2   16 1
    17    2   17 1
    18    3   18 1
    19    3   19 1
    20    4   20 1
    21    4   21 1
    22    5   22 1
    23    5   23 1
    24    8   24 1
    25    8   25 1
    26    8   26 1
    27    9   27 1
    28    9   28 1
    29    9   29 1
    30   10   30 1
    31   10   31 1
    32   10   32 1
    33   11   33 1
    34   11   34 1
    35   11   35 1
@<TRIPOS>SUBSTRUCTURE
     1 <0>         1 GROUP 0 A     ****
