@<TRIPOS>MOLECULE
AlkEthOH_r36
   23    23     1     0     0
SMALL
USER_CHARGES

@<TRIPOS>ATOM
      1 C1          0.3367    0.9484    0.4380 CT        1 <0>       -0.07672
      2 C2         -0.4708    1.1918    1.7081 CT        1 <0>       -0.07247
      3 C3          0.2829    2.0354   -0.6302 CT        1 <0>       -0.07247
      4 C4         -0.4509    2.6282    2.2154 CT        1 <0>       -0.10714
      5 C5         -1.0857    2.6753   -0.8265 CT        1 <0>       -0.10714
      6 C6         -1.5376    3.5015    1.5878 CT        1 <0>        0.14808
      7 C7         -1.3360    3.8575    0.1122 CT        1 <0>        0.14808
      8 O1         -1.5666    4.7253    2.3353 OH        1 <0>       -0.59387
      9 O2         -2.5337    4.5168   -0.3210 OH        1 <0>       -0.59387
     10 H1          1.3889    0.7914    0.7079 HC        1 <0>        0.03773
     11 H2          0.0001   -0.0000   -0.0000 HC        1 <0>        0.03773
     12 H3         -1.5068    0.8641    1.5555 HC        1 <0>        0.04112
     13 H4         -0.0653    0.5355    2.4888 HC        1 <0>        0.04112
     14 H5          1.0286    2.8087   -0.4075 HC        1 <0>        0.04112
     15 H6          0.6003    1.5832   -1.5786 HC        1 <0>        0.04112
     16 H7         -0.6226    2.6085    3.3002 HC        1 <0>        0.04837
     17 H8          0.5391    3.0844    2.0917 HC        1 <0>        0.04837
     18 H9         -1.1430    3.0496   -1.8577 HC        1 <0>        0.04837
     19 H10        -1.8908    1.9345   -0.7465 HC        1 <0>        0.04837
     20 H11        -2.5194    3.0307    1.7315 H1        1 <0>        0.04961
     21 H12        -0.5269    4.5932    0.0144 H1        1 <0>        0.04961
     22 H13        -1.7745    4.4770    3.2467 HO        1 <0>        0.39744
     23 H14        -2.3663    4.8064   -1.2286 HO        1 <0>        0.39744
@<TRIPOS>BOND
     1    1    2 1
     2    1    3 1
     3    2    4 1
     4    3    5 1
     5    4    6 1
     6    5    7 1
     7    6    7 1
     8    6    8 1
     9    7    9 1
    10    1   10 1
    11    1   11 1
    12    2   12 1
    13    2   13 1
    14    3   14 1
    15    3   15 1
    16    4   16 1
    17    4   17 1
    18    5   18 1
    19    5   19 1
    20    6   20 1
    21    7   21 1
    22    8   22 1
    23    9   23 1
@<TRIPOS>SUBSTRUCTURE
     1 <0>         1 GROUP 0 A     ****
