@<TRIPOS>MOLECULE
AlkEthOH_r159
   19    19     1     0     0
SMALL
USER_CHARGES

@<TRIPOS>ATOM
      1 C1         -0.3085   -1.8272    0.9263 CT        1 <0>       -0.12722
      2 C2         -0.6471   -0.6164    1.7956 CT        1 <0>        0.13641
      3 C3         -0.2144   -1.5160   -0.5674 CT        1 <0>        0.14965
      4 C4          0.0107    1.5291    0.9962 CT        1 <0>        0.34255
      5 C5          0.4495    0.6955   -1.1967 CT        1 <0>        0.53453
      6 O1          0.3927    0.3554    1.7122 OS        1 <0>       -0.43663
      7 O2          0.8674   -0.6205   -0.8162 OS        1 <0>       -0.44921
      8 O3         -0.5009    1.2973   -0.3144 OS        1 <0>       -0.52064
      9 O4         -0.0493    0.7029   -2.5358 OH        1 <0>       -0.61582
     10 H1          0.6606   -2.2235    1.2543 HC        1 <0>        0.06096
     11 H2         -1.0626   -2.6058    1.0851 HC        1 <0>        0.06096
     12 H3         -1.6269   -0.1991    1.5340 H1        1 <0>        0.04522
     13 H4         -0.7006   -0.9386    2.8411 H1        1 <0>        0.04522
     14 H5          0.0092   -2.4435   -1.1054 H1        1 <0>        0.04743
     15 H6         -1.1675   -1.1376   -0.9554 H1        1 <0>        0.04743
     16 H7         -0.7598    2.0549    1.5707 H2        1 <0>        0.06720
     17 H8          0.8794    2.1937    0.9378 H2        1 <0>        0.06720
     18 H9          1.3527    1.3173   -1.1972 H3        1 <0>        0.11659
     19 H10        -0.3111    1.6163   -2.7239 HO        1 <0>        0.42817
@<TRIPOS>BOND
     1    1    2 1
     2    1    3 1
     3    2    6 1
     4    3    7 1
     5    4    6 1
     6    4    8 1
     7    5    7 1
     8    5    8 1
     9    5    9 1
    10    1   10 1
    11    1   11 1
    12    2   12 1
    13    2   13 1
    14    3   14 1
    15    3   15 1
    16    4   16 1
    17    4   17 1
    18    5   18 1
    19    9   19 1
@<TRIPOS>SUBSTRUCTURE
     1 <0>         1 GROUP 0 A     ****
