@<TRIPOS>MOLECULE
AlkEthOH_r882
   28    28     1     0     0
SMALL
USER_CHARGES

@<TRIPOS>ATOM
      1 C1          0.4641   -0.0385   -1.9553 CT        1 <0>       -0.07541
      2 C2          0.8984   -1.3908   -1.3811 CT        1 <0>       -0.06666
      3 C3         -1.0323    0.2676   -1.8342 CT        1 <0>       -0.06666
      4 C4          0.4064   -1.7493    0.0237 CT        1 <0>       -0.09705
      5 C5         -1.3941    1.2475   -0.7092 CT        1 <0>       -0.09705
      6 C6          0.7378   -0.7500    1.1426 CT        1 <0>        0.14572
      7 C7         -1.0960    0.7447    0.7072 CT        1 <0>        0.14572
      8 C8          2.2385   -0.6867    1.4119 CT        1 <0>       -0.09830
      9 C9         -1.5365    1.7753    1.7424 CT        1 <0>       -0.09830
     10 O1          0.3136    0.5803    0.8519 OS        1 <0>       -0.42029
     11 H1          1.0668    0.7707   -1.5272 HC        1 <0>        0.04626
     12 H2          0.7220   -0.0529   -3.0228 HC        1 <0>        0.04626
     13 H3          0.5477   -2.1776   -2.0621 HC        1 <0>        0.03493
     14 H4          1.9936   -1.4443   -1.4095 HC        1 <0>        0.03493
     15 H5         -1.3529    0.7363   -2.7741 HC        1 <0>        0.03493
     16 H6         -1.6206   -0.6523   -1.7439 HC        1 <0>        0.03493
     17 H7         -0.6773   -1.9028   -0.0212 HC        1 <0>        0.04325
     18 H8          0.8223   -2.7288    0.2934 HC        1 <0>        0.04325
     19 H9         -0.8508    2.1850   -0.8867 HC        1 <0>        0.04325
     20 H10        -2.4634    1.4797   -0.7900 HC        1 <0>        0.04325
     21 H11         0.2453   -1.0760    2.0677 H1        1 <0>        0.03330
     22 H12        -1.6430   -0.1849    0.9014 H1        1 <0>        0.03330
     23 H13         2.7630   -0.3654    0.5130 HC        1 <0>        0.04274
     24 H14         2.6041   -1.6701    1.7045 HC        1 <0>        0.04274
     25 H15         2.4413    0.0215    2.2143 HC        1 <0>        0.04274
     26 H16        -1.0100    2.7146    1.5776 HC        1 <0>        0.04274
     27 H17        -1.3117    1.4130    2.7448 HC        1 <0>        0.04274
     28 H18        -2.6086    1.9493    1.6593 HC        1 <0>        0.04274
@<TRIPOS>BOND
     1    1    2 1
     2    1    3 1
     3    2    4 1
     4    3    5 1
     5    4    6 1
     6    5    7 1
     7    6    8 1
     8    6   10 1
     9    7    9 1
    10    7   10 1
    11    1   11 1
    12    1   12 1
    13    2   13 1
    14    2   14 1
    15    3   15 1
    16    3   16 1
    17    4   17 1
    18    4   18 1
    19    5   19 1
    20    5   20 1
    21    6   21 1
    22    7   22 1
    23    8   23 1
    24    8   24 1
    25    8   25 1
    26    9   26 1
    27    9   27 1
    28    9   28 1
@<TRIPOS>SUBSTRUCTURE
     1 <0>         1 GROUP 0 A     ****
