@<TRIPOS>MOLECULE
AlkEthOH_r644
   28    28     1     0     0
SMALL
USER_CHARGES

@<TRIPOS>ATOM
      1 C1         -0.7399    1.0725   -2.0315 CT        1 <0>       -0.15097
      2 C2         -0.3520   -0.3195   -2.5286 CT        1 <0>        0.14154
      3 C3         -1.7145    1.0896   -0.8515 CT        1 <0>        0.16536
      4 C4          1.2017   -0.8091   -0.7623 CT        1 <0>        0.10870
      5 C5          0.8380   -0.6468    0.7312 CT        1 <0>        0.13905
      6 C6         -0.1715    0.5239    0.9661 CT        1 <0>        0.36654
      7 C7          0.3104   -1.9894    1.2703 CT        1 <0>       -0.11764
      8 C8         -0.5819    0.6582    2.4395 CT        1 <0>       -0.12481
      9 O1          0.0589   -1.2183   -1.5069 OS        1 <0>       -0.40592
     10 O2         -1.3749    0.2355    0.2347 OS        1 <0>       -0.44770
     11 O3          2.0461   -0.3434    1.4405 OH        1 <0>       -0.59210
     12 O4          0.4795    1.7467    0.5986 OH        1 <0>       -0.60403
     13 H1          0.1709    1.6144   -1.7621 HC        1 <0>        0.06019
     14 H2         -1.1782    1.6383   -2.8625 HC        1 <0>        0.06019
     15 H3         -1.2180   -0.7765   -3.0197 H1        1 <0>        0.04392
     16 H4          0.4398   -0.2467   -3.2834 H1        1 <0>        0.04392
     17 H5         -1.8546    2.1121   -0.4824 H1        1 <0>        0.03982
     18 H6         -2.6945    0.7537   -1.2089 H1        1 <0>        0.03982
     19 H7          1.6736    0.0953   -1.1646 H1        1 <0>        0.05047
     20 H8          1.9587   -1.5961   -0.8702 H1        1 <0>        0.05047
     21 H9          0.0548   -1.8769    2.3182 HC        1 <0>        0.05142
     22 H10         1.0805   -2.7450    1.1599 HC        1 <0>        0.05142
     23 H11        -0.5703   -2.2783    0.7070 HC        1 <0>        0.05142
     24 H12        -1.2807    1.4827    2.5457 HC        1 <0>        0.05602
     25 H13         0.3000    0.8496    3.0436 HC        1 <0>        0.05602
     26 H14        -1.0543   -0.2629    2.7678 HC        1 <0>        0.05602
     27 H15         2.6397   -1.0927    1.2916 HO        1 <0>        0.40070
     28 H16        -0.1655    2.4511    0.7535 HO        1 <0>        0.41016
@<TRIPOS>BOND
     1    1    2 1
     2    1    3 1
     3    2    9 1
     4    3   10 1
     5    4    5 1
     6    4    9 1
     7    5    6 1
     8    5    7 1
     9    5   11 1
    10    6    8 1
    11    6   10 1
    12    6   12 1
    13    1   13 1
    14    1   14 1
    15    2   15 1
    16    2   16 1
    17    3   17 1
    18    3   18 1
    19    4   19 1
    20    4   20 1
    21    7   21 1
    22    7   22 1
    23    7   23 1
    24    8   24 1
    25    8   25 1
    26    8   26 1
    27   11   27 1
    28   12   28 1
@<TRIPOS>SUBSTRUCTURE
     1 <0>         1 GROUP 0 A     ****
