@<TRIPOS>MOLECULE
AlkEthOH_c468
   27    26     1     0     0
SMALL
USER_CHARGES

@<TRIPOS>ATOM
      1 C1         -0.4237   -3.2343   -0.7903 CT        1 <0>       -0.09168
      2 C2         -0.0503   -0.9161    0.0748 CT        1 <0>       -0.09168
      3 C3         -2.7071   -1.7245   -6.0447 CT        1 <0>       -0.10751
      4 C4         -0.4688   -2.2177   -7.0928 CT        1 <0>       -0.10751
      5 C5         -0.3808   -1.3238   -2.4187 CT        1 <0>       -0.07730
      6 C6         -1.1136   -2.0995   -3.5067 CT        1 <0>        0.12862
      7 C7         -0.7568   -1.7542   -0.9916 CT        1 <0>       -0.06678
      8 C8         -1.3218   -2.3176   -5.8374 CT        1 <0>        0.13972
      9 O1         -0.6735   -1.6314   -4.7755 OS        1 <0>       -0.42267
     10 H1          0.6505   -3.4115   -0.9098 HC        1 <0>        0.03436
     11 H2         -0.9535   -3.8633   -1.5140 HC        1 <0>        0.03436
     12 H3         -0.7051   -3.5635    0.2156 HC        1 <0>        0.03436
     13 H4          1.0383   -1.0013   -0.0101 HC        1 <0>        0.03436
     14 H5         -0.3372   -1.2446    1.0796 HC        1 <0>        0.03436
     15 H6         -0.3175    0.1417   -0.0080 HC        1 <0>        0.03436
     16 H7         -2.6485   -0.6732   -6.3423 HC        1 <0>        0.04263
     17 H8         -3.2465   -2.2785   -6.8205 HC        1 <0>        0.04263
     18 H9         -3.3080   -1.7973   -5.1314 HC        1 <0>        0.04263
     19 H10        -0.3569   -1.1781   -7.4155 HC        1 <0>        0.04263
     20 H11        -0.9228   -2.7905   -7.9086 HC        1 <0>        0.04263
     21 H12         0.5275   -2.6422   -6.9272 HC        1 <0>        0.04263
     22 H13         0.6995   -1.4529   -2.5678 HC        1 <0>        0.05445
     23 H14        -0.5661   -0.2502   -2.5551 HC        1 <0>        0.05445
     24 H15        -0.8957   -3.1699   -3.4374 H1        1 <0>        0.02464
     25 H16        -2.1951   -1.9481   -3.4469 H1        1 <0>        0.02464
     26 H17        -1.8397   -1.6331   -0.8616 HC        1 <0>        0.04527
     27 H18        -1.4144   -3.3675   -5.5411 H1        1 <0>        0.03140
@<TRIPOS>BOND
     1    1    7 1
     2    2    7 1
     3    3    8 1
     4    4    8 1
     5    5    6 1
     6    5    7 1
     7    6    9 1
     8    8    9 1
     9    1   10 1
    10    1   11 1
    11    1   12 1
    12    2   13 1
    13    2   14 1
    14    2   15 1
    15    3   16 1
    16    3   17 1
    17    3   18 1
    18    4   19 1
    19    4   20 1
    20    4   21 1
    21    5   22 1
    22    5   23 1
    23    6   24 1
    24    6   25 1
    25    7   26 1
    26    8   27 1
@<TRIPOS>SUBSTRUCTURE
     1 <0>         1 GROUP 0 A     ****
