@<TRIPOS>MOLECULE
AlkEthOH_r747
   20    20     1     0     0
SMALL
USER_CHARGES

@<TRIPOS>ATOM
      1 C1          0.9675   -0.1819   -0.4840 CT        1 <0>       -0.10876
      2 C2          1.5730    1.1581   -0.8799 CT        1 <0>       -0.11630
      3 C3          0.7553   -1.0557   -1.7128 CT        1 <0>        0.12625
      4 C4          0.7620    1.8045   -2.0019 CT        1 <0>        0.10990
      5 C5          0.5525    0.8188   -3.1584 CT        1 <0>        0.14568
      6 C6         -0.3593    1.3990   -4.2344 CT        1 <0>       -0.08741
      7 O1         -0.0546   -0.3849   -2.6777 OS        1 <0>       -0.41527
      8 O2          1.4268    2.9779   -2.4522 OH        1 <0>       -0.59675
      9 H1          1.6109   -0.6918    0.2406 HC        1 <0>        0.05255
     10 H2          0.0001   -0.0001   -0.0001 HC        1 <0>        0.05255
     11 H3          1.6203    1.8286   -0.0137 HC        1 <0>        0.04818
     12 H4          2.6117    1.0171   -1.2064 HC        1 <0>        0.04818
     13 H5          1.7102   -1.3390   -2.1710 H1        1 <0>        0.04873
     14 H6          0.2394   -1.9782   -1.4282 H1        1 <0>        0.04873
     15 H7         -0.2176    2.1029   -1.5890 H1        1 <0>        0.04609
     16 H8          1.5139    0.5773   -3.6299 H1        1 <0>        0.04916
     17 H9         -1.3272    1.6523   -3.8033 HC        1 <0>        0.04899
     18 H10        -0.5048    0.6694   -5.0301 HC        1 <0>        0.04899
     19 H11         0.0888    2.2986   -4.6547 HC        1 <0>        0.04899
     20 H12         1.4930    3.5724   -1.6877 HO        1 <0>        0.40152
@<TRIPOS>BOND
     1    1    2 1
     2    1    3 1
     3    2    4 1
     4    3    7 1
     5    4    5 1
     6    4    8 1
     7    5    6 1
     8    5    7 1
     9    1    9 1
    10    1   10 1
    11    2   11 1
    12    2   12 1
    13    3   13 1
    14    3   14 1
    15    4   15 1
    16    5   16 1
    17    6   17 1
    18    6   18 1
    19    6   19 1
    20    8   20 1
@<TRIPOS>SUBSTRUCTURE
     1 <0>         1 GROUP 0 A     ****
