@<TRIPOS>MOLECULE
AlkEthOH_c574
   27    26     1     0     0
SMALL
USER_CHARGES

@<TRIPOS>ATOM
      1 C1         -0.6388   -2.5680   -2.0443 CT        1 <0>       -0.10951
      2 C2         -0.4122   -0.3478   -3.2152 CT        1 <0>       -0.10951
      3 C3          1.6538    1.6373   -0.0471 CT        1 <0>       -0.13262
      4 C4          1.1579    1.1004    2.3389 CT        1 <0>       -0.13262
      5 C5         -0.5013   -1.0626   -1.8755 CT        1 <0>        0.14410
      6 C6         -1.3133    0.5745   -0.3466 CT        1 <0>        0.53295
      7 C7          0.5389    1.4317    0.9789 CT        1 <0>        0.35359
      8 O1         -2.4861    1.1171    0.2659 OH        1 <0>       -0.59984
      9 O2         -0.1893    2.6550    1.0948 OH        1 <0>       -0.64028
     10 O3         -1.6225   -0.5683   -1.1549 OS        1 <0>       -0.40149
     11 O4         -0.3100    0.3276    0.6425 OS        1 <0>       -0.46349
     12 H1         -1.5251   -2.8223   -2.6334 HC        1 <0>        0.04440
     13 H2          0.2445   -2.9774   -2.5462 HC        1 <0>        0.04440
     14 H3         -0.7083   -3.0692   -1.0725 HC        1 <0>        0.04440
     15 H4         -1.2931   -0.5492   -3.8323 HC        1 <0>        0.04440
     16 H5          0.4797   -0.6725   -3.7618 HC        1 <0>        0.04440
     17 H6         -0.3203    0.7353   -3.0786 HC        1 <0>        0.04440
     18 H7          1.2414    1.8766   -1.0337 HC        1 <0>        0.05432
     19 H8          2.3361    2.4372    0.2581 HC        1 <0>        0.05432
     20 H9          2.2456    0.7249   -0.1779 HC        1 <0>        0.05432
     21 H10         0.3853    0.9463    3.1001 HC        1 <0>        0.05432
     22 H11         1.7889    1.9273    2.6857 HC        1 <0>        0.05432
     23 H12         1.7927    0.2096    2.2842 HC        1 <0>        0.05432
     24 H13         0.3926   -0.8415   -1.2831 H1        1 <0>        0.04233
     25 H14        -0.9546    1.3432   -1.0404 H3        1 <0>        0.06228
     26 H15        -2.2128    1.8841    0.7970 HO        1 <0>        0.44041
     27 H16         0.4236    3.3496    1.3887 HO        1 <0>        0.42138
@<TRIPOS>BOND
     1    1    5 1
     2    2    5 1
     3    3    7 1
     4    4    7 1
     5    5   10 1
     6    6    8 1
     7    6   10 1
     8    6   11 1
     9    7    9 1
    10    7   11 1
    11    1   12 1
    12    1   13 1
    13    1   14 1
    14    2   15 1
    15    2   16 1
    16    2   17 1
    17    3   18 1
    18    3   19 1
    19    3   20 1
    20    4   21 1
    21    4   22 1
    22    4   23 1
    23    5   24 1
    24    6   25 1
    25    8   26 1
    26    9   27 1
@<TRIPOS>SUBSTRUCTURE
     1 <0>         1 GROUP 0 A     ****
