@<TRIPOS>MOLECULE
AlkEthOH_c443
   22    21     1     0     0
SMALL
USER_CHARGES

@<TRIPOS>ATOM
      1 C1          0.3510    1.1057   -1.5898 CT        1 <0>       -0.09387
      2 C2          1.8695   -0.8641   -1.8691 CT        1 <0>       -0.09387
      3 C3         -3.1060   -0.6307    1.8276 CT        1 <0>        0.12089
      4 C4         -0.1336   -0.9922   -0.2953 CT        1 <0>       -0.10882
      5 C5          0.9761   -0.1033   -0.8888 CT        1 <0>       -0.06925
      6 C6         -1.0283   -0.3020    0.7400 CT        1 <0>        0.33078
      7 O1         -0.1768    0.1677    1.7838 OH        1 <0>       -0.62235
      8 O2         -1.9830   -1.2505    1.2165 OS        1 <0>       -0.41340
      9 H1         -0.2922    0.7866   -2.4169 HC        1 <0>        0.03696
     10 H2         -0.2568    1.6972   -0.8968 HC        1 <0>        0.03696
     11 H3          1.1259    1.7590   -2.0045 HC        1 <0>        0.03696
     12 H4          1.2804   -1.2621   -2.7026 HC        1 <0>        0.03696
     13 H5          2.3715   -1.7049   -1.3786 HC        1 <0>        0.03696
     14 H6          2.6356   -0.2113   -2.2983 HC        1 <0>        0.03696
     15 H7         -3.8032   -1.3979    2.1734 H1        1 <0>        0.03706
     16 H8         -3.5986    0.0258    1.1059 H1        1 <0>        0.03706
     17 H9         -2.7652   -0.0400    2.6812 H1        1 <0>        0.03706
     18 H10         0.3032   -1.8945    0.1529 HC        1 <0>        0.06727
     19 H11        -0.7696   -1.3481   -1.1178 HC        1 <0>        0.06727
     20 H12         1.6060    0.2755   -0.0743 HC        1 <0>        0.03997
     21 H13        -1.5313    0.5591    0.2853 H2        1 <0>        0.03169
     22 H14         0.4539    0.7895    1.3829 HO        1 <0>        0.41075
@<TRIPOS>BOND
     1    1    5 1
     2    2    5 1
     3    3    8 1
     4    4    5 1
     5    4    6 1
     6    6    7 1
     7    6    8 1
     8    1    9 1
     9    1   10 1
    10    1   11 1
    11    2   12 1
    12    2   13 1
    13    2   14 1
    14    3   15 1
    15    3   16 1
    16    3   17 1
    17    4   18 1
    18    4   19 1
    19    5   20 1
    20    6   21 1
    21    7   22 1
@<TRIPOS>SUBSTRUCTURE
     1 <0>         1 GROUP 0 A     ****
