@<TRIPOS>MOLECULE
AlkEthOH_r908
   34    34     1     0     0
SMALL
USER_CHARGES

@<TRIPOS>ATOM
      1 C1         -1.5672    1.8636   -1.1055 CT        1 <0>       -0.06631
      2 C2         -0.8214    1.9731    0.2310 CT        1 <0>       -0.06651
      3 C3         -2.2575    0.5206   -1.3978 CT        1 <0>       -0.07878
      4 C4          0.6823    1.6858    0.0859 CT        1 <0>       -0.07512
      5 C5          0.7028   -0.6830    1.1965 CT        1 <0>       -0.09305
      6 C6         -1.6407   -0.7290   -0.7784 CT        1 <0>        0.13577
      7 C7          1.2975    0.7453    1.1381 CT        1 <0>       -0.05473
      8 C8          0.5846   -1.4710   -0.1381 CT        1 <0>        0.15743
      9 C9          1.2472    1.3822    2.5330 CT        1 <0>       -0.09239
     10 C10         0.0685   -2.8950    0.1376 CT        1 <0>       -0.10412
     11 C11         1.9599   -1.5929   -0.8136 CT        1 <0>       -0.10412
     12 O1         -0.2561   -0.7996   -1.0888 OS        1 <0>       -0.41643
     13 H1         -2.3457    2.6374   -1.1318 HC        1 <0>        0.03776
     14 H2         -0.8917    2.1093   -1.9345 HC        1 <0>        0.03776
     15 H3         -0.9197    3.0080    0.5851 HC        1 <0>        0.03475
     16 H4         -1.3017    1.3585    0.9971 HC        1 <0>        0.03475
     17 H5         -3.3018    0.5811   -1.0662 HC        1 <0>        0.04112
     18 H6         -2.2922    0.3984   -2.4879 HC        1 <0>        0.04112
     19 H7          0.9181    1.3066   -0.9137 HC        1 <0>        0.04707
     20 H8          1.2122    2.6473    0.1385 HC        1 <0>        0.04707
     21 H9          1.3270   -1.2712    1.8845 HC        1 <0>        0.04247
     22 H10        -0.2780   -0.6292    1.6820 HC        1 <0>        0.04247
     23 H11        -1.8318   -0.7276    0.2975 H1        1 <0>        0.02690
     24 H12        -2.1324   -1.6164   -1.1926 H1        1 <0>        0.02690
     25 H13         2.3615    0.6457    0.8846 HC        1 <0>        0.04152
     26 H14         0.2117    1.5056    2.8377 HC        1 <0>        0.03262
     27 H15         1.7347    2.3527    2.5058 HC        1 <0>        0.03262
     28 H16         1.7595    0.7392    3.2433 HC        1 <0>        0.03262
     29 H17        -0.0095   -3.4341   -0.8004 HC        1 <0>        0.04314
     30 H18        -0.9069   -2.8361    0.6083 HC        1 <0>        0.04314
     31 H19         0.7631   -3.4049    0.7965 HC        1 <0>        0.04314
     32 H20         1.8563   -2.1454   -1.7423 HC        1 <0>        0.04314
     33 H21         2.6403   -2.1186   -0.1510 HC        1 <0>        0.04314
     34 H22         2.3474   -0.6004   -1.0213 HC        1 <0>        0.04314
@<TRIPOS>BOND
     1    1    2 1
     2    1    3 1
     3    2    4 1
     4    3    6 1
     5    4    7 1
     6    5    7 1
     7    5    8 1
     8    6   12 1
     9    7    9 1
    10    8   10 1
    11    8   11 1
    12    8   12 1
    13    1   13 1
    14    1   14 1
    15    2   15 1
    16    2   16 1
    17    3   17 1
    18    3   18 1
    19    4   19 1
    20    4   20 1
    21    5   21 1
    22    5   22 1
    23    6   23 1
    24    6   24 1
    25    7   25 1
    26    9   26 1
    27    9   27 1
    28    9   28 1
    29   10   29 1
    30   10   30 1
    31   10   31 1
    32   11   32 1
    33   11   33 1
    34   11   34 1
@<TRIPOS>SUBSTRUCTURE
     1 <0>         1 GROUP 0 A     ****
