@<TRIPOS>MOLECULE
AlkEthOH_r40
   26    26     1     0     0
SMALL
USER_CHARGES

@<TRIPOS>ATOM
      1 C1         -1.0166    2.1876    0.0770 CT        1 <0>       -0.07477
      2 C2         -1.0813    1.4115   -1.2397 CT        1 <0>       -0.06992
      3 C3         -1.0019    1.3567    1.3614 CT        1 <0>       -0.06992
      4 C4          0.1856    0.6252   -1.5728 CT        1 <0>       -0.11263
      5 C5          0.2817    0.5585    1.5832 CT        1 <0>       -0.11263
      6 C6         -0.5182   -1.3523   -0.0129 CT        1 <0>       -0.06297
      7 C7          0.0955   -0.8846   -1.3368 CT        1 <0>        0.15482
      8 C8          0.1750   -0.9400    1.2901 CT        1 <0>        0.15482
      9 O1          1.3977   -1.4513   -1.4797 OH        1 <0>       -0.57980
     10 O2          1.4825   -1.5112    1.3302 OH        1 <0>       -0.57980
     11 H1         -0.1482    2.8584    0.0648 HC        1 <0>        0.03919
     12 H2         -1.8985    2.8403    0.1175 HC        1 <0>        0.03919
     13 H3         -1.9722    0.7749   -1.2704 HC        1 <0>        0.03931
     14 H4         -1.2233    2.1560   -2.0346 HC        1 <0>        0.03931
     15 H5         -1.0946    2.0674    2.1936 HC        1 <0>        0.03931
     16 H6         -1.8904    0.7184    1.4194 HC        1 <0>        0.03931
     17 H7          0.3964    0.7600   -2.6437 HC        1 <0>        0.04568
     18 H8          1.0679    1.0531   -1.0848 HC        1 <0>        0.04568
     19 H9          1.1332    1.0073    1.0606 HC        1 <0>        0.04568
     20 H10         0.5577    0.6487    2.6440 HC        1 <0>        0.04568
     21 H11        -1.5741   -1.0644    0.0252 HC        1 <0>        0.05704
     22 H12        -0.5127   -2.4515   -0.0363 HC        1 <0>        0.05704
     23 H13        -0.5176   -1.3127   -2.1422 H1        1 <0>        0.01961
     24 H14        -0.3882   -1.4027    2.1124 H1        1 <0>        0.01961
     25 H15         1.6848   -1.2532   -2.3838 HO        1 <0>        0.39058
     26 H16         1.8241   -1.3510    2.2228 HO        1 <0>        0.39058
@<TRIPOS>BOND
     1    1    2 1
     2    1    3 1
     3    2    4 1
     4    3    5 1
     5    4    7 1
     6    5    8 1
     7    6    7 1
     8    6    8 1
     9    7    9 1
    10    8   10 1
    11    1   11 1
    12    1   12 1
    13    2   13 1
    14    2   14 1
    15    3   15 1
    16    3   16 1
    17    4   17 1
    18    4   18 1
    19    5   19 1
    20    5   20 1
    21    6   21 1
    22    6   22 1
    23    7   23 1
    24    8   24 1
    25    9   25 1
    26   10   26 1
@<TRIPOS>SUBSTRUCTURE
     1 <0>         1 GROUP 0 A     ****
