@<TRIPOS>MOLECULE
AlkEthOH_r157
   22    22     1     0     0
SMALL
USER_CHARGES

@<TRIPOS>ATOM
      1 C1         -0.7929   -1.4978   -0.5501 CT        1 <0>       -0.10528
      2 C2          0.5935   -0.0974    1.1786 CT        1 <0>       -0.17982
      3 C3         -0.0598   -0.9443   -1.7767 CT        1 <0>        0.14176
      4 C4         -0.2925    1.3936   -1.2784 CT        1 <0>        0.32602
      5 C5         -0.0150   -1.4463    0.7733 CT        1 <0>        0.16508
      6 C6         -0.3485    1.1122    1.1228 CT        1 <0>        0.35471
      7 O1          0.5828    0.3080   -1.5700 OS        1 <0>       -0.45064
      8 O2         -1.0756    1.2588   -0.0955 OS        1 <0>       -0.44347
      9 O3          1.0571   -2.3908    0.7188 OH        1 <0>       -0.60070
     10 O4          0.3508    2.3040    1.4770 OH        1 <0>       -0.62346
     11 H1         -1.7484   -0.9766   -0.4271 HC        1 <0>        0.06502
     12 H2         -1.0556   -2.5412   -0.7684 HC        1 <0>        0.06502
     13 H3          0.9865   -0.1831    2.2021 HC        1 <0>        0.06613
     14 H4          1.5033    0.0968    0.5959 HC        1 <0>        0.06613
     15 H5          0.7247   -1.6511   -2.0690 H1        1 <0>        0.05204
     16 H6         -0.7473   -0.8658   -2.6269 H1        1 <0>        0.05204
     17 H7          0.3119    2.3040   -1.2065 H2        1 <0>        0.07318
     18 H8         -0.9784    1.5313   -2.1213 H2        1 <0>        0.07318
     19 H9         -0.6875   -1.7771    1.5739 H1        1 <0>        0.02562
     20 H10        -1.1233    0.9572    1.9038 H2        1 <0>        0.06740
     21 H11         1.5192   -2.3264    1.5675 HO        1 <0>        0.39773
     22 H12         0.6806    2.1715    2.3789 HO        1 <0>        0.41231
@<TRIPOS>BOND
     1    1    3 1
     2    1    5 1
     3    2    5 1
     4    2    6 1
     5    3    7 1
     6    4    7 1
     7    4    8 1
     8    5    9 1
     9    6    8 1
    10    6   10 1
    11    1   11 1
    12    1   12 1
    13    2   13 1
    14    2   14 1
    15    3   15 1
    16    3   16 1
    17    4   17 1
    18    4   18 1
    19    5   19 1
    20    6   20 1
    21    9   21 1
    22   10   22 1
@<TRIPOS>SUBSTRUCTURE
     1 <0>         1 GROUP 0 A     ****
