@<TRIPOS>MOLECULE
AlkEthOH_c254
   20    19     1     0     0
SMALL
USER_CHARGES

@<TRIPOS>ATOM
      1 C1          0.7014    0.3726    1.6219 CT        1 <0>       -0.11100
      2 C2          0.0999    1.9098   -0.2296 CT        1 <0>       -0.11100
      3 C3         -1.9147   -0.1385   -0.9561 CT        1 <0>        0.12235
      4 C4          1.2175   -1.6250   -0.5133 CT        1 <0>        0.33315
      5 C5          0.1286    0.4352    0.1992 CT        1 <0>        0.34551
      6 O1          1.7185   -2.3197   -1.6443 OH        1 <0>       -0.58732
      7 O2         -1.2000   -0.1054    0.2717 OS        1 <0>       -0.45217
      8 O3          0.9801   -0.2395   -0.7409 OS        1 <0>       -0.43351
      9 H1          0.7460   -0.6614    1.9827 HC        1 <0>        0.05425
     10 H2          0.1070    0.9704    2.3208 HC        1 <0>        0.05425
     11 H3          1.7308    0.7465    1.6521 HC        1 <0>        0.05425
     12 H4         -0.3018    2.0197   -1.2432 HC        1 <0>        0.05425
     13 H5          1.1110    2.3316   -0.2555 HC        1 <0>        0.05425
     14 H6         -0.5224    2.5109    0.4417 HC        1 <0>        0.05425
     15 H7         -2.9069   -0.5651   -0.7896 H1        1 <0>        0.03900
     16 H8         -1.3644   -0.7415   -1.6828 H1        1 <0>        0.03900
     17 H9         -2.0178    0.8810   -1.3350 H1        1 <0>        0.03900
     18 H10         1.9876   -1.6858    0.2615 H2        1 <0>        0.02248
     19 H11         0.3329   -2.1318   -0.1154 H2        1 <0>        0.02248
     20 H12         1.8426   -3.2467   -1.3788 HO        1 <0>        0.40653
@<TRIPOS>BOND
     1    1    5 1
     2    2    5 1
     3    3    7 1
     4    4    6 1
     5    4    8 1
     6    5    7 1
     7    5    8 1
     8    1    9 1
     9    1   10 1
    10    1   11 1
    11    2   12 1
    12    2   13 1
    13    2   14 1
    14    3   15 1
    15    3   16 1
    16    3   17 1
    17    4   18 1
    18    4   19 1
    19    6   20 1
@<TRIPOS>SUBSTRUCTURE
     1 <0>         1 GROUP 0 A     ****
