@<TRIPOS>MOLECULE
AlkEthOH_r528
   31    31     1     0     0
SMALL
USER_CHARGES

@<TRIPOS>ATOM
      1 C1          0.8624   -1.5997   -0.4919 CT        1 <0>       -0.10231
      2 C2         -0.4902   -0.1239    1.1091 CT        1 <0>       -0.05675
      3 C3          0.8915   -0.8481   -1.8213 CT        1 <0>        0.13358
      4 C4         -1.1232    0.3445   -1.3477 CT        1 <0>        0.13782
      5 C5          0.9023   -0.7491    0.7990 CT        1 <0>       -0.03659
      6 C6         -1.1930    0.8370    0.1095 CT        1 <0>       -0.07191
      7 C7          2.0389    0.2841    0.7720 CT        1 <0>       -0.09118
      8 C8          1.2132   -1.7182    1.9722 CT        1 <0>       -0.09118
      9 C9         -2.6861    0.9134    0.5106 CT        1 <0>       -0.08707
     10 C10        -0.6248    2.2660    0.2227 CT        1 <0>       -0.08707
     11 O1          0.2089    0.3940   -1.8342 OS        1 <0>       -0.41546
     12 H1         -0.0401   -2.2258   -0.4676 HC        1 <0>        0.04334
     13 H2          1.6992   -2.3113   -0.5027 HC        1 <0>        0.04334
     14 H3         -1.1769   -0.9684    1.2742 HC        1 <0>        0.03729
     15 H4         -0.4332    0.3809    2.0847 HC        1 <0>        0.03729
     16 H5          1.9320   -0.6350   -2.0908 H1        1 <0>        0.04218
     17 H6          0.4912   -1.4837   -2.6200 H1        1 <0>        0.04218
     18 H7         -1.5614   -0.6542   -1.4683 H1        1 <0>        0.04351
     19 H8         -1.7090    1.0168   -1.9863 H1        1 <0>        0.04351
     20 H9          2.0278    0.8557    1.6950 HC        1 <0>        0.03647
     21 H10         1.8974    0.9527   -0.0716 HC        1 <0>        0.03647
     22 H11         2.9902   -0.2298    0.6736 HC        1 <0>        0.03647
     23 H12         1.2469   -1.1478    2.8891 HC        1 <0>        0.03647
     24 H13         2.1682   -2.1878    1.7859 HC        1 <0>        0.03647
     25 H14         0.4309   -2.4618    2.0200 HC        1 <0>        0.03647
     26 H15        -3.1970    1.5784   -0.1731 HC        1 <0>        0.03611
     27 H16        -2.7563    1.2925    1.5215 HC        1 <0>        0.03611
     28 H17        -3.1132   -0.0791    0.4541 HC        1 <0>        0.03611
     29 H18        -1.1356    2.9077   -0.4860 HC        1 <0>        0.03611
     30 H19         0.4359    2.2442    0.0012 HC        1 <0>        0.03611
     31 H20        -0.7831    2.6315    1.2308 HC        1 <0>        0.03611
@<TRIPOS>BOND
     1    1    3 1
     2    1    5 1
     3    2    5 1
     4    2    6 1
     5    3   11 1
     6    4    6 1
     7    4   11 1
     8    5    7 1
     9    5    8 1
    10    6    9 1
    11    6   10 1
    12    1   12 1
    13    1   13 1
    14    2   14 1
    15    2   15 1
    16    3   16 1
    17    3   17 1
    18    4   18 1
    19    4   19 1
    20    7   20 1
    21    7   21 1
    22    7   22 1
    23    8   23 1
    24    8   24 1
    25    8   25 1
    26    9   26 1
    27    9   27 1
    28    9   28 1
    29   10   29 1
    30   10   30 1
    31   10   31 1
@<TRIPOS>SUBSTRUCTURE
     1 <0>         1 GROUP 0 A     ****
