@<TRIPOS>MOLECULE
AlkEthOH_r187
   29    29     1     0     0
SMALL
USER_CHARGES

@<TRIPOS>ATOM
      1 C1         -1.4834   -0.1535    1.7437 CT        1 <0>       -0.06693
      2 C2         -0.5949    1.0088    2.1694 CT        1 <0>       -0.10233
      3 C3         -1.6182   -0.3651    0.2315 CT        1 <0>       -0.10320
      4 C4          0.7903    0.9884    1.5463 CT        1 <0>        0.12843
      5 C5         -0.3340   -0.8281   -0.5016 CT        1 <0>        0.13533
      6 C6          0.6583    0.3549   -0.8190 CT        1 <0>        0.17212
      7 C7         -0.7489   -1.6009   -1.7710 CT        1 <0>       -0.12322
      8 C8          0.2279    1.1350   -2.0805 CT        1 <0>       -0.09939
      9 C9          2.1071   -0.1182   -1.0473 CT        1 <0>       -0.09939
     10 O1          0.6889    1.3785    0.1882 OS        1 <0>       -0.42396
     11 O2          0.3070   -1.7998    0.3403 OH        1 <0>       -0.60029
     12 H1         -1.1264   -1.0748    2.2196 HC        1 <0>        0.03856
     13 H2         -2.4859    0.0202    2.1555 HC        1 <0>        0.03856
     14 H3         -1.0986    1.9467    1.9036 HC        1 <0>        0.04648
     15 H4         -0.5005    0.9910    3.2615 HC        1 <0>        0.04648
     16 H5         -2.3844   -1.1440    0.1126 HC        1 <0>        0.04837
     17 H6         -2.0313    0.5338   -0.2405 HC        1 <0>        0.04837
     18 H7          1.3994    1.7520    2.0423 H1        1 <0>        0.05506
     19 H8          1.3071    0.0351    1.6860 H1        1 <0>        0.05506
     20 H9          0.1426   -1.9296   -2.2918 HC        1 <0>        0.04382
     21 H10        -1.3288   -0.9455   -2.4099 HC        1 <0>        0.04382
     22 H11        -1.3455   -2.4585   -1.4834 HC        1 <0>        0.04382
     23 H12         0.9363    1.9347   -2.2586 HC        1 <0>        0.04579
     24 H13        -0.7612    1.5460   -1.9197 HC        1 <0>        0.04579
     25 H14         0.2143    0.4577   -2.9256 HC        1 <0>        0.04579
     26 H15         2.7323    0.7416   -1.2596 HC        1 <0>        0.04579
     27 H16         2.1286   -0.8042   -1.8865 HC        1 <0>        0.04579
     28 H17         2.4622   -0.6192   -0.1538 HC        1 <0>        0.04579
     29 H18        -0.3311   -2.5175    0.4496 HO        1 <0>        0.39969
@<TRIPOS>BOND
     1    1    2 1
     2    1    3 1
     3    2    4 1
     4    3    5 1
     5    4   10 1
     6    5    6 1
     7    5    7 1
     8    5   11 1
     9    6    8 1
    10    6    9 1
    11    6   10 1
    12    1   12 1
    13    1   13 1
    14    2   14 1
    15    2   15 1
    16    3   16 1
    17    3   17 1
    18    4   18 1
    19    4   19 1
    20    7   20 1
    21    7   21 1
    22    7   22 1
    23    8   23 1
    24    8   24 1
    25    8   25 1
    26    9   26 1
    27    9   27 1
    28    9   28 1
    29   11   29 1
@<TRIPOS>SUBSTRUCTURE
     1 <0>         1 GROUP 0 A     ****
