@<TRIPOS>MOLECULE
AlkEthOH_r138
   21    21     1     0     0
SMALL
USER_CHARGES

@<TRIPOS>ATOM
      1 C1         -2.2680   -0.0857    0.2167 CT        1 <0>       -0.13084
      2 C2         -1.3866   -1.3003   -0.0489 CT        1 <0>        0.13208
      3 C3         -1.5646    1.0184    1.0036 CT        1 <0>        0.13208
      4 C4          0.8915   -1.1458   -0.7565 CT        1 <0>        0.11836
      5 C5          0.8141    0.8967    0.7786 CT        1 <0>        0.11836
      6 C6          1.5181    0.1969   -0.3812 CT        1 <0>        0.08821
      7 O1         -0.4777   -1.0143   -1.1101 OS        1 <0>       -0.40765
      8 O2         -0.4034    1.4831    0.3271 OS        1 <0>       -0.40765
      9 O3          2.8766   -0.0491   -0.0293 OH        1 <0>       -0.60033
     10 H1         -2.5988    0.3271   -0.7442 HC        1 <0>        0.06212
     11 H2         -3.1576   -0.3967    0.7757 HC        1 <0>        0.06212
     12 H3         -0.8874   -1.6321    0.8687 H1        1 <0>        0.04130
     13 H4         -2.0177   -2.1263   -0.3941 H1        1 <0>        0.04130
     14 H5         -2.2482    1.8712    1.0822 H1        1 <0>        0.04130
     15 H6         -1.3414    0.7024    2.0293 H1        1 <0>        0.04130
     16 H7          1.4159   -1.5339   -1.6382 H1        1 <0>        0.05043
     17 H8          1.0470   -1.9014    0.0241 H1        1 <0>        0.05043
     18 H9          0.6787    0.2089    1.6223 H1        1 <0>        0.05043
     19 H10         1.4423    1.7138    1.1516 H1        1 <0>        0.05043
     20 H11         1.4988    0.8500   -1.2622 H1        1 <0>        0.06312
     21 H12         3.2988   -0.4379   -0.8111 HO        1 <0>        0.40310
@<TRIPOS>BOND
     1    1    2 1
     2    1    3 1
     3    2    7 1
     4    3    8 1
     5    4    6 1
     6    4    7 1
     7    5    6 1
     8    5    8 1
     9    6    9 1
    10    1   10 1
    11    1   11 1
    12    2   12 1
    13    2   13 1
    14    3   14 1
    15    3   15 1
    16    4   16 1
    17    4   17 1
    18    5   18 1
    19    5   19 1
    20    6   20 1
    21    9   21 1
@<TRIPOS>SUBSTRUCTURE
     1 <0>         1 GROUP 0 A     ****
