@<TRIPOS>MOLECULE
AlkEthOH_r161
   14    14     1     0     0
SMALL
USER_CHARGES

@<TRIPOS>ATOM
      1 C1          1.1800    0.6369   -0.4875 CT        1 <0>       -0.14866
      2 C2          1.1804   -0.8043    0.0063 CT        1 <0>        0.12746
      3 C3          0.0508    1.4169    0.1737 CT        1 <0>        0.12746
      4 C4         -1.1097   -0.6013    0.4890 CT        1 <0>        0.31470
      5 O1         -0.1131   -1.3812   -0.1707 OS        1 <0>       -0.43534
      6 O2         -1.1885    0.7330   -0.0108 OS        1 <0>       -0.43534
      7 H1          2.1468    1.1146   -0.3018 HC        1 <0>        0.06191
      8 H2          1.0041    0.6291   -1.5703 HC        1 <0>        0.06191
      9 H3          1.8998   -1.4014   -0.5627 H1        1 <0>        0.05098
     10 H4          1.4600   -0.8617    1.0647 H1        1 <0>        0.05098
     11 H5          0.2341    1.5492    1.2464 H1        1 <0>        0.05098
     12 H6         -0.0393    2.4108   -0.2754 H1        1 <0>        0.05098
     13 H7         -2.0768   -1.0796    0.3092 H2        1 <0>        0.06099
     14 H8         -0.9372   -0.5955    1.5725 H2        1 <0>        0.06099
@<TRIPOS>BOND
     1    1    2 1
     2    1    3 1
     3    2    5 1
     4    3    6 1
     5    4    5 1
     6    4    6 1
     7    1    7 1
     8    1    8 1
     9    2    9 1
    10    2   10 1
    11    3   11 1
    12    3   12 1
    13    4   13 1
    14    4   14 1
@<TRIPOS>SUBSTRUCTURE
     1 <0>         1 GROUP 0 A     ****
