@<TRIPOS>MOLECULE
AlkEthOH_c189
   24    23     1     0     0
SMALL
USER_CHARGES

@<TRIPOS>ATOM
      1 C1         -0.4645   -0.0646    0.9894 CT        1 <0>       -0.11015
      2 C2          1.6273    0.6910    2.1567 CT        1 <0>       -0.11015
      3 C3          1.2036   -1.7604    1.8118 CT        1 <0>       -0.11015
      4 C4         -2.5736   -0.2543    4.8807 CT        1 <0>        0.33433
      5 C5         -1.1437   -1.4314    3.3767 CT        1 <0>        0.51470
      6 C6          0.5609   -0.3988    2.0719 CT        1 <0>        0.15926
      7 O1         -2.8703   -1.1491    5.9420 OH        1 <0>       -0.63764
      8 O2         -0.8505   -2.4708    4.3134 OH        1 <0>       -0.63124
      9 O3         -2.4516   -0.9002    3.6165 OS        1 <0>       -0.46120
     10 O4         -0.1082   -0.4451    3.3327 OS        1 <0>       -0.43051
     11 H1         -1.2317   -0.8445    0.9253 HC        1 <0>        0.04666
     12 H2         -0.9578    0.8935    1.1830 HC        1 <0>        0.04666
     13 H3          0.0103   -0.0162    0.0027 HC        1 <0>        0.04666
     14 H4          2.3651    0.4554    2.9322 HC        1 <0>        0.04666
     15 H5          1.1816    1.6524    2.4367 HC        1 <0>        0.04666
     16 H6          2.1531    0.8168    1.2047 HC        1 <0>        0.04666
     17 H7          1.9391   -2.0003    2.5882 HC        1 <0>        0.04666
     18 H8          0.4566   -2.5604    1.7845 HC        1 <0>        0.04666
     19 H9          1.7476   -1.7592    0.8603 HC        1 <0>        0.04666
     20 H10        -1.6787    0.3320    5.1182 H2        1 <0>        0.05824
     21 H11        -3.4125    0.4434    4.8039 H2        1 <0>        0.05824
     22 H12        -1.1442   -1.9060    2.3881 H3        1 <0>        0.09130
     23 H13        -2.9332   -0.6188    6.7544 HO        1 <0>        0.41244
     24 H14        -1.5184   -3.1677    4.1982 HO        1 <0>        0.44259
@<TRIPOS>BOND
     1    1    6 1
     2    2    6 1
     3    3    6 1
     4    4    7 1
     5    4    9 1
     6    5    8 1
     7    5    9 1
     8    5   10 1
     9    6   10 1
    10    1   11 1
    11    1   12 1
    12    1   13 1
    13    2   14 1
    14    2   15 1
    15    2   16 1
    16    3   17 1
    17    3   18 1
    18    3   19 1
    19    4   20 1
    20    4   21 1
    21    5   22 1
    22    7   23 1
    23    8   24 1
@<TRIPOS>SUBSTRUCTURE
     1 <0>         1 GROUP 0 A     ****
