@<TRIPOS>MOLECULE
AlkEthOH_c1000
   25    24     1     0     0
SMALL
USER_CHARGES

@<TRIPOS>ATOM
      1 C1          0.7839    0.5261   -3.1425 CT        1 <0>       -0.09389
      2 C2         -2.0892    2.6925    0.6016 CT        1 <0>       -0.10824
      3 C3         -1.1102    1.3466    2.4829 CT        1 <0>       -0.10824
      4 C4          0.4080    2.5306    0.8702 CT        1 <0>       -0.10824
      5 C5          0.5249    0.2720   -1.6653 CT        1 <0>       -0.11671
      6 C6         -0.7514    0.9506   -1.1653 CT        1 <0>        0.32961
      7 C7         -0.9254    1.8035    1.0375 CT        1 <0>        0.15975
      8 O1         -1.8304    0.4533   -1.9526 OH        1 <0>       -0.60979
      9 O2         -0.9129    0.6416    0.2195 OS        1 <0>       -0.45805
     10 H1         -0.0549    0.1760   -3.7525 HC        1 <0>        0.03848
     11 H2          0.9355    1.5910   -3.3440 HC        1 <0>        0.03848
     12 H3          1.6835   -0.0077   -3.4648 HC        1 <0>        0.03848
     13 H4         -1.9603    3.0226   -0.4354 HC        1 <0>        0.04445
     14 H5         -3.0482    2.1707    0.6837 HC        1 <0>        0.04445
     15 H6         -2.1366    3.6018    1.2118 HC        1 <0>        0.04445
     16 H7         -0.2775    0.7085    2.7999 HC        1 <0>        0.04445
     17 H8         -2.0190    0.7431    2.5883 HC        1 <0>        0.04445
     18 H9         -1.1768    2.1964    3.1699 HC        1 <0>        0.04445
     19 H10         1.2430    1.8932    1.1828 HC        1 <0>        0.04445
     20 H11         0.5747    2.8336   -0.1686 HC        1 <0>        0.04445
     21 H12         0.4470    3.4240    1.5040 HC        1 <0>        0.04445
     22 H13         1.3848    0.6353   -1.0884 HC        1 <0>        0.05386
     23 H14         0.4639   -0.8077   -1.4832 HC        1 <0>        0.05386
     24 H15        -0.6695    2.0351   -1.3110 H2        1 <0>        0.07581
     25 H16        -1.8622   -0.5095   -1.8222 HO        1 <0>        0.41478
@<TRIPOS>BOND
     1    1    5 1
     2    2    7 1
     3    3    7 1
     4    4    7 1
     5    5    6 1
     6    6    8 1
     7    6    9 1
     8    7    9 1
     9    1   10 1
    10    1   11 1
    11    1   12 1
    12    2   13 1
    13    2   14 1
    14    2   15 1
    15    3   16 1
    16    3   17 1
    17    3   18 1
    18    4   19 1
    19    4   20 1
    20    4   21 1
    21    5   22 1
    22    5   23 1
    23    6   24 1
    24    8   25 1
@<TRIPOS>SUBSTRUCTURE
     1 <0>         1 GROUP 0 A     ****
