@<TRIPOS>MOLECULE
AlkEthOH_c838
   32    31     1     0     0
SMALL
USER_CHARGES

@<TRIPOS>ATOM
      1 C1          1.7612    2.0692    1.6438 CT        1 <0>       -0.12646
      2 C2         -0.9547   -1.5612    1.2796 CT        1 <0>       -0.10608
      3 C3         -0.5907   -3.4429   -0.3440 CT        1 <0>       -0.10608
      4 C4          1.3330   -1.9675    0.3121 CT        1 <0>       -0.10608
      5 C5         -1.4768    0.9914   -0.9642 CT        1 <0>       -0.12360
      6 C6          0.7894    0.7225   -1.9357 CT        1 <0>       -0.12360
      7 C7          0.4666    1.8378    0.8789 CT        1 <0>        0.33861
      8 C8         -0.1717   -2.0293    0.0538 CT        1 <0>        0.18611
      9 C9         -0.1580    0.2164   -0.8377 CT        1 <0>        0.37436
     10 O1         -0.6047    2.1045    1.7751 OH        1 <0>       -0.61947
     11 O2          0.4961    0.4894    0.4118 OS        1 <0>       -0.47848
     12 O3         -0.4795   -1.1692   -1.0349 OS        1 <0>       -0.44139
     13 H1          1.8436    1.3831    2.4929 HC        1 <0>        0.05464
     14 H2          1.8245    3.1006    2.0049 HC        1 <0>        0.05464
     15 H3          2.6282    1.8947    0.9965 HC        1 <0>        0.05464
     16 H4         -0.6568   -0.5468    1.5683 HC        1 <0>        0.04239
     17 H5         -2.0339   -1.5675    1.0955 HC        1 <0>        0.04239
     18 H6         -0.7473   -2.2021    2.1442 HC        1 <0>        0.04239
     19 H7         -0.0314   -3.7828   -1.2231 HC        1 <0>        0.04239
     20 H8         -1.6504   -3.4722   -0.6220 HC        1 <0>        0.04239
     21 H9         -0.4257   -4.1571    0.4693 HC        1 <0>        0.04239
     22 H10         1.8949   -2.3032   -0.5670 HC        1 <0>        0.04239
     23 H11         1.6579   -0.9525    0.5630 HC        1 <0>        0.04239
     24 H12         1.6152   -2.6363    1.1333 HC        1 <0>        0.04239
     25 H13        -2.2017    0.6774   -0.2059 HC        1 <0>        0.05014
     26 H14        -1.9336    0.8396   -1.9484 HC        1 <0>        0.05014
     27 H15        -1.3088    2.0707   -0.8741 HC        1 <0>        0.05014
     28 H16         1.7539    0.2037   -1.8968 HC        1 <0>        0.05014
     29 H17         0.3671    0.5654   -2.9339 HC        1 <0>        0.05014
     30 H18         1.0111    1.7875   -1.8031 HC        1 <0>        0.05014
     31 H19         0.4325    2.5449    0.0440 H2        1 <0>        0.07680
     32 H20        -0.5160    3.0300    2.0596 HO        1 <0>        0.40909
@<TRIPOS>BOND
     1    1    7 1
     2    2    8 1
     3    3    8 1
     4    4    8 1
     5    5    9 1
     6    6    9 1
     7    7   10 1
     8    7   11 1
     9    8   12 1
    10    9   11 1
    11    9   12 1
    12    1   13 1
    13    1   14 1
    14    1   15 1
    15    2   16 1
    16    2   17 1
    17    2   18 1
    18    3   19 1
    19    3   20 1
    20    3   21 1
    21    4   22 1
    22    4   23 1
    23    4   24 1
    24    5   25 1
    25    5   26 1
    26    5   27 1
    27    6   28 1
    28    6   29 1
    29    6   30 1
    30    7   31 1
    31   10   32 1
@<TRIPOS>SUBSTRUCTURE
     1 <0>         1 GROUP 0 A     ****
