@<TRIPOS>MOLECULE
AlkEthOH_r1023
   26    26     1     0     0
SMALL
USER_CHARGES

@<TRIPOS>ATOM
      1 C1         -0.2615   -0.8420   -1.7266 CT        1 <0>       -0.12934
      2 C2         -0.2960   -0.2382    1.7605 CT        1 <0>       -0.12930
      3 C3         -0.2110   -1.9634   -0.6892 CT        1 <0>        0.13502
      4 C4          0.5213   -1.5151    1.5472 CT        1 <0>        0.13502
      5 C5         -0.5031    0.5482   -1.1197 CT        1 <0>        0.14608
      6 C6          0.3293    1.0133    1.1246 CT        1 <0>        0.14608
      7 C7         -0.5660    1.6005   -2.2230 CT        1 <0>       -0.11464
      8 C8         -0.4973    2.2666    1.4069 CT        1 <0>       -0.11464
      9 O1          0.8873   -1.7593    0.1935 OS        1 <0>       -0.40412
     10 O2          0.5969    0.8892   -0.2742 OS        1 <0>       -0.40572
     11 H1          0.6996   -0.8303   -2.2572 HC        1 <0>        0.05330
     12 H2         -1.0456   -1.0694   -2.4579 HC        1 <0>        0.05330
     13 H3         -1.3056   -0.3915    1.3652 HC        1 <0>        0.05330
     14 H4         -0.4165   -0.0787    2.8392 HC        1 <0>        0.05330
     15 H5         -1.1651   -2.0621   -0.1592 H1        1 <0>        0.04054
     16 H6         -0.0335   -2.9124   -1.2067 H1        1 <0>        0.04054
     17 H7          1.4544   -1.4390    2.1162 H1        1 <0>        0.04054
     18 H8         -0.0191   -2.3848    1.9390 H1        1 <0>        0.04054
     19 H9         -1.4582    0.5581   -0.5847 H1        1 <0>        0.05473
     20 H10         1.3097    1.1666    1.5918 H1        1 <0>        0.05473
     21 H11         0.3729    1.6150   -2.7750 HC        1 <0>        0.04179
     22 H12        -0.7375    2.5840   -1.7874 HC        1 <0>        0.04179
     23 H13        -1.3790    1.3688   -2.9098 HC        1 <0>        0.04179
     24 H14        -1.4855    2.1647    0.9616 HC        1 <0>        0.04179
     25 H15        -0.0026    3.1382    0.9816 HC        1 <0>        0.04179
     26 H16        -0.6025    2.4047    2.4816 HC        1 <0>        0.04179
@<TRIPOS>BOND
     1    1    3 1
     2    1    5 1
     3    2    4 1
     4    2    6 1
     5    3    9 1
     6    4    9 1
     7    5    7 1
     8    5   10 1
     9    6    8 1
    10    6   10 1
    11    1   11 1
    12    1   12 1
    13    2   13 1
    14    2   14 1
    15    3   15 1
    16    3   16 1
    17    4   17 1
    18    4   18 1
    19    5   19 1
    20    6   20 1
    21    7   21 1
    22    7   22 1
    23    7   23 1
    24    8   24 1
    25    8   25 1
    26    8   26 1
@<TRIPOS>SUBSTRUCTURE
     1 <0>         1 GROUP 0 A     ****
