@<TRIPOS>MOLECULE
AlkEthOH_r199
   20    20     1     0     0
SMALL
USER_CHARGES

@<TRIPOS>ATOM
      1 C1          0.1015    0.6799   -1.4011 CT        1 <0>        0.08446
      2 C2          0.1740    0.7843    0.1331 CT        1 <0>        0.09543
      3 C3         -0.1782   -0.7417    0.0876 CT        1 <0>        0.15217
      4 C4          1.5478    1.2043    0.6386 CT        1 <0>       -0.11779
      5 C5          0.7785   -1.7135    0.7689 CT        1 <0>       -0.09293
      6 C6         -1.6353   -1.0911    0.3948 CT        1 <0>       -0.09293
      7 O1          0.0351   -0.7638   -1.3517 OS        1 <0>       -0.41925
      8 O2         -0.8235    1.6415    0.7298 OH        1 <0>       -0.57613
      9 H1         -0.7975    1.1016   -1.8625 H1        1 <0>        0.05829
     10 H2          0.9816    1.0229   -1.9532 H1        1 <0>        0.05829
     11 H3          1.5435    1.2625    1.7274 HC        1 <0>        0.05049
     12 H4          1.8120    2.1816    0.2339 HC        1 <0>        0.05049
     13 H5          2.2987    0.4779    0.3267 HC        1 <0>        0.05049
     14 H6          0.4122   -2.7340    0.6598 HC        1 <0>        0.04912
     15 H7          0.8565   -1.4765    1.8297 HC        1 <0>        0.04912
     16 H8          1.7670   -1.6414    0.3158 HC        1 <0>        0.04912
     17 H9         -1.7741   -2.1686    0.3373 HC        1 <0>        0.04912
     18 H10        -2.2888   -0.6065   -0.3277 HC        1 <0>        0.04912
     19 H11        -1.8913   -0.7494    1.3956 HC        1 <0>        0.04912
     20 H12        -0.6739    2.5146    0.3481 HO        1 <0>        0.40420
@<TRIPOS>BOND
     1    1    2 1
     2    1    7 1
     3    2    3 1
     4    2    4 1
     5    2    8 1
     6    3    5 1
     7    3    6 1
     8    3    7 1
     9    1    9 1
    10    1   10 1
    11    4   11 1
    12    4   12 1
    13    4   13 1
    14    5   14 1
    15    5   15 1
    16    5   16 1
    17    6   17 1
    18    6   18 1
    19    6   19 1
    20    8   20 1
@<TRIPOS>SUBSTRUCTURE
     1 <0>         1 GROUP 0 A     ****
