@<TRIPOS>MOLECULE
AlkEthOH_c92
   21    20     1     0     0
SMALL
USER_CHARGES

@<TRIPOS>ATOM
      1 C1         -0.6435    0.2586   -2.2908 CT        1 <0>       -0.13228
      2 C2         -0.9559   -0.1462    1.5829 CT        1 <0>       -0.12148
      3 C3          2.0477   -0.3917    0.7123 CT        1 <0>        0.33915
      4 C4         -1.2523   -0.0341   -0.9203 CT        1 <0>        0.13318
      5 C5         -0.2643    0.1791    0.2519 CT        1 <0>        0.31862
      6 O1          2.8530    0.5456    0.0120 OH        1 <0>       -0.61087
      7 O2         -1.7376   -1.3756   -0.9273 OH        1 <0>       -0.58878
      8 O3          0.1091    1.5587    0.2251 OH        1 <0>       -0.63967
      9 O4          0.8426   -0.7066    0.0254 OS        1 <0>       -0.45752
     10 H1          0.2287   -0.3828   -2.4594 HC        1 <0>        0.05532
     11 H2         -1.3610    0.0830   -3.0976 HC        1 <0>        0.05532
     12 H3         -0.2840    1.2911   -2.3570 HC        1 <0>        0.05532
     13 H4         -0.2813   -0.0047    2.4335 HC        1 <0>        0.05504
     14 H5         -1.3322   -1.1750    1.5873 HC        1 <0>        0.05504
     15 H6         -1.8263    0.4969    1.7497 HC        1 <0>        0.05504
     16 H7          1.8727   -0.0487    1.7360 H2        1 <0>        0.05954
     17 H8          2.6259   -1.3180    0.7767 H2        1 <0>        0.05954
     18 H9         -2.1188    0.6258   -0.7912 H1        1 <0>        0.06426
     19 H10         3.6479    0.7005    0.5494 HO        1 <0>        0.41538
     20 H11        -2.4033   -1.4234   -1.6303 HO        1 <0>        0.41314
     21 H12        -0.6952    2.0956    0.3191 HO        1 <0>        0.41671
@<TRIPOS>BOND
     1    1    4 1
     2    2    5 1
     3    3    6 1
     4    3    9 1
     5    4    5 1
     6    4    7 1
     7    5    8 1
     8    5    9 1
     9    1   10 1
    10    1   11 1
    11    1   12 1
    12    2   13 1
    13    2   14 1
    14    2   15 1
    15    3   16 1
    16    3   17 1
    17    4   18 1
    18    6   19 1
    19    7   20 1
    20    8   21 1
@<TRIPOS>SUBSTRUCTURE
     1 <0>         1 GROUP 0 A     ****
