@<TRIPOS>MOLECULE
AlkEthOH_r349
   34    34     1     0     0
SMALL
USER_CHARGES

@<TRIPOS>ATOM
      1 C1         -1.8557    1.0035   -0.7348 CT        1 <0>       -0.07766
      2 C2         -2.3448   -0.1531    0.1327 CT        1 <0>       -0.06299
      3 C3         -1.0847    0.6170   -1.9942 CT        1 <0>       -0.06299
      4 C4         -1.2992   -1.1207    0.6949 CT        1 <0>       -0.09438
      5 C5          0.2027   -0.1966   -1.8278 CT        1 <0>       -0.09438
      6 C6         -0.0398   -0.5096    1.3445 CT        1 <0>        0.16963
      7 C7          1.2014    0.2640   -0.7456 CT        1 <0>        0.16963
      8 C8         -0.4652    0.2837    2.5994 CT        1 <0>       -0.10331
      9 C9          0.8884   -1.6335    1.8277 CT        1 <0>       -0.10331
     10 C10         2.4139   -0.6784   -0.7265 CT        1 <0>       -0.10331
     11 C11         1.7348    1.6626   -1.1260 CT        1 <0>       -0.10331
     12 O1          0.6483    0.4610    0.5556 OS        1 <0>       -0.42434
     13 H1         -2.7418    1.5680   -1.0554 HC        1 <0>        0.04770
     14 H2         -1.2801    1.7157   -0.1353 HC        1 <0>        0.04770
     15 H3         -2.9087    0.2741    0.9719 HC        1 <0>        0.03332
     16 H4         -3.0745   -0.7392   -0.4410 HC        1 <0>        0.03332
     17 H5         -1.7551    0.0593   -2.6610 HC        1 <0>        0.03332
     18 H6         -0.8412    1.5420   -2.5324 HC        1 <0>        0.03332
     19 H7         -1.8085   -1.7485    1.4407 HC        1 <0>        0.04077
     20 H8         -1.0160   -1.8317   -0.0845 HC        1 <0>        0.04077
     21 H9         -0.0564   -1.2476   -1.6812 HC        1 <0>        0.04077
     22 H10         0.7146   -0.1929   -2.8013 HC        1 <0>        0.04077
     23 H11         0.4159    0.7147    3.0589 HC        1 <0>        0.04158
     24 H12        -0.9522   -0.3902    3.2935 HC        1 <0>        0.04158
     25 H13        -1.1501    1.0691    2.3040 HC        1 <0>        0.04158
     26 H14         1.7732   -1.1995    2.2840 HC        1 <0>        0.04158
     27 H15         1.1806   -2.2486    0.9819 HC        1 <0>        0.04158
     28 H16         0.3655   -2.2442    2.5578 HC        1 <0>        0.04158
     29 H17         3.1136   -0.3503    0.0364 HC        1 <0>        0.04158
     30 H18         2.9001   -0.6601   -1.6973 HC        1 <0>        0.04158
     31 H19         2.0821   -1.6884   -0.5050 HC        1 <0>        0.04158
     32 H20         2.4364    1.9896   -0.3685 HC        1 <0>        0.04158
     33 H21         0.9025    2.3533   -1.1822 HC        1 <0>        0.04158
     34 H22         2.2300    1.6008   -2.0872 HC        1 <0>        0.04158
@<TRIPOS>BOND
     1    1    2 1
     2    1    3 1
     3    2    4 1
     4    3    5 1
     5    4    6 1
     6    5    7 1
     7    6    8 1
     8    6    9 1
     9    6   12 1
    10    7   10 1
    11    7   11 1
    12    7   12 1
    13    1   13 1
    14    1   14 1
    15    2   15 1
    16    2   16 1
    17    3   17 1
    18    3   18 1
    19    4   19 1
    20    4   20 1
    21    5   21 1
    22    5   22 1
    23    8   23 1
    24    8   24 1
    25    8   25 1
    26    9   26 1
    27    9   27 1
    28    9   28 1
    29   10   29 1
    30   10   30 1
    31   10   31 1
    32   11   32 1
    33   11   33 1
    34   11   34 1
@<TRIPOS>SUBSTRUCTURE
     1 <0>         1 GROUP 0 A     ****
