@<TRIPOS>MOLECULE
AlkEthOH_r849
   16    16     1     0     0
SMALL
USER_CHARGES

@<TRIPOS>ATOM
      1 C1         -0.6203   -1.0373   -0.8885 CT        1 <0>       -0.08950
      2 C2         -0.0070   -1.4341    0.4681 CT        1 <0>       -0.13060
      3 C3          0.0669    0.3397   -0.7200 CT        1 <0>       -0.07543
      4 C4          0.0542    0.0728    0.8121 CT        1 <0>        0.11748
      5 C5         -0.7125    1.5461   -1.2028 CT        1 <0>       -0.08448
      6 O1          1.2187    0.5128    1.5311 OH        1 <0>       -0.58468
      7 H1         -0.2915   -1.6294   -1.7466 HC        1 <0>        0.05123
      8 H2         -1.7161   -1.0036   -0.8787 HC        1 <0>        0.05123
      9 H3         -0.6496   -2.0411    1.1113 HC        1 <0>        0.05536
     10 H4          0.9750   -1.9148    0.3898 HC        1 <0>        0.05536
     11 H5          1.0861    0.3477   -1.1329 HC        1 <0>        0.07739
     12 H6         -0.8584    0.4245    1.3105 H1        1 <0>        0.04397
     13 H7         -1.7248    1.5356   -0.7911 HC        1 <0>        0.03745
     14 H8         -0.7815    1.5436   -2.2935 HC        1 <0>        0.03745
     15 H9         -0.2193    2.4693   -0.8882 HC        1 <0>        0.03745
     16 H10         1.2212    0.0150    2.3594 HO        1 <0>        0.40032
@<TRIPOS>BOND
     1    1    2 1
     2    1    3 1
     3    2    4 1
     4    3    4 1
     5    3    5 1
     6    4    6 1
     7    1    7 1
     8    1    8 1
     9    2    9 1
    10    2   10 1
    11    3   11 1
    12    4   12 1
    13    5   13 1
    14    5   14 1
    15    5   15 1
    16    6   16 1
@<TRIPOS>SUBSTRUCTURE
     1 <0>         1 GROUP 0 A     ****
