@<TRIPOS>MOLECULE
AlkEthOH_r681
   21    21     1     0     0
SMALL
USER_CHARGES

@<TRIPOS>ATOM
      1 C1          0.3392    0.2161   -1.4234 CT        1 <0>        0.12590
      2 C2          1.1432   -0.1098   -0.1825 CT        1 <0>        0.31697
      3 C3         -1.0546    0.1485    0.3660 CT        1 <0>        0.35398
      4 C4          2.4560    0.6513   -0.1092 CT        1 <0>       -0.11124
      5 C5         -1.8020    1.4557    0.6035 CT        1 <0>       -0.10866
      6 C6         -1.7511   -1.0162    1.0577 CT        1 <0>       -0.10866
      7 O1         -0.9997   -0.1169   -1.0435 OS        1 <0>       -0.43700
      8 O2          0.2773    0.2850    0.8851 OS        1 <0>       -0.47263
      9 O3          1.3917   -1.5136   -0.1536 OH        1 <0>       -0.60738
     10 H1          0.3582    1.2835   -1.6694 H1        1 <0>        0.07056
     11 H2          0.6240   -0.3691   -2.3021 H1        1 <0>        0.07056
     12 H3          2.9972    0.3831    0.7999 HC        1 <0>        0.05613
     13 H4          2.2685    1.7266   -0.1007 HC        1 <0>        0.05613
     14 H5          3.0799    0.4111   -0.9721 HC        1 <0>        0.05613
     15 H6         -1.2880    2.2747    0.1010 HC        1 <0>        0.05293
     16 H7         -1.8488    1.6687    1.6712 HC        1 <0>        0.05293
     17 H8         -2.8163    1.3806    0.2121 HC        1 <0>        0.05293
     18 H9         -1.2021   -1.9404    0.8762 HC        1 <0>        0.05293
     19 H10        -2.7652   -1.1262    0.6730 HC        1 <0>        0.05293
     20 H11        -1.7979   -0.8381    2.1322 HC        1 <0>        0.05293
     21 H12         1.9060   -1.6859    0.6500 HO        1 <0>        0.42163
@<TRIPOS>BOND
     1    1    2 1
     2    1    7 1
     3    2    4 1
     4    2    8 1
     5    2    9 1
     6    3    5 1
     7    3    6 1
     8    3    7 1
     9    3    8 1
    10    1   10 1
    11    1   11 1
    12    4   12 1
    13    4   13 1
    14    4   14 1
    15    5   15 1
    16    5   16 1
    17    5   17 1
    18    6   18 1
    19    6   19 1
    20    6   20 1
    21    9   21 1
@<TRIPOS>SUBSTRUCTURE
     1 <0>         1 GROUP 0 A     ****
