@<TRIPOS>MOLECULE
AlkEthOH_c672
   29    28     1     0     0
SMALL
USER_CHARGES

@<TRIPOS>ATOM
      1 C1         -0.8825    0.3039    0.4723 CT        1 <0>       -0.11083
      2 C2         -1.8946    3.7055   -3.1110 CT        1 <0>       -0.10857
      3 C3         -5.2167    2.5388   -3.3590 CT        1 <0>       -0.13166
      4 C4         -5.8920    3.0610   -1.0127 CT        1 <0>       -0.13166
      5 C5         -1.4311    2.0113   -1.3010 CT        1 <0>       -0.09368
      6 C6         -1.9563    0.8336   -0.4695 CT        1 <0>        0.14201
      7 C7         -2.4683    2.5565   -2.2917 CT        1 <0>        0.14574
      8 C8         -4.8360    2.3811   -1.8851 CT        1 <0>        0.35192
      9 O1         -2.3551   -0.2157   -1.3470 OH        1 <0>       -0.61003
     10 O2         -4.8399    1.0013   -1.5179 OH        1 <0>       -0.63589
     11 O3         -3.6005    3.0297   -1.5678 OS        1 <0>       -0.41714
     12 H1          0.0092   -0.0116   -0.0779 HC        1 <0>        0.03837
     13 H2         -1.2559   -0.5454    1.0550 HC        1 <0>        0.03837
     14 H3         -0.5909    1.0753    1.1933 HC        1 <0>        0.03837
     15 H4         -1.5520    4.5113   -2.4530 HC        1 <0>        0.04091
     16 H5         -1.0222    3.3788   -3.6878 HC        1 <0>        0.04091
     17 H6         -2.6398    4.1135   -3.8005 HC        1 <0>        0.04091
     18 H7         -4.4770    2.0606   -4.0103 HC        1 <0>        0.05221
     19 H8         -6.2046    2.1128   -3.5623 HC        1 <0>        0.05221
     20 H9         -5.2458    3.5940   -3.6511 HC        1 <0>        0.05221
     21 H10        -5.6356    2.9583    0.0486 HC        1 <0>        0.05221
     22 H11        -6.8792    2.6069   -1.1505 HC        1 <0>        0.05221
     23 H12        -5.9568    4.1333   -1.2265 HC        1 <0>        0.05221
     24 H13        -1.1259    2.8133   -0.6171 HC        1 <0>        0.05393
     25 H14        -0.5445    1.6922   -1.8635 HC        1 <0>        0.05393
     26 H15        -2.8323    1.1397    0.1129 H1        1 <0>        0.06015
     27 H16        -2.8051    1.7614   -2.9658 H1        1 <0>        0.06588
     28 H17        -2.6999   -0.9285   -0.7871 HO        1 <0>        0.40634
     29 H18        -5.7340    0.6497   -1.6644 HO        1 <0>        0.40846
@<TRIPOS>BOND
     1    1    6 1
     2    2    7 1
     3    3    8 1
     4    4    8 1
     5    5    6 1
     6    5    7 1
     7    6    9 1
     8    7   11 1
     9    8   10 1
    10    8   11 1
    11    1   12 1
    12    1   13 1
    13    1   14 1
    14    2   15 1
    15    2   16 1
    16    2   17 1
    17    3   18 1
    18    3   19 1
    19    3   20 1
    20    4   21 1
    21    4   22 1
    22    4   23 1
    23    5   24 1
    24    5   25 1
    25    6   26 1
    26    7   27 1
    27    9   28 1
    28   10   29 1
@<TRIPOS>SUBSTRUCTURE
     1 <0>         1 GROUP 0 A     ****
