@<TRIPOS>MOLECULE
AlkEthOH_r755
   17    17     1     0     0
SMALL
USER_CHARGES

@<TRIPOS>ATOM
      1 C1         -0.6838    0.7612   -0.9695 CT        1 <0>        0.08127
      2 C2          0.8997    0.2504    0.2659 CT        1 <0>        0.14215
      3 C3         -0.5864   -0.1791    0.2414 CT        1 <0>        0.09155
      4 C4          1.9511   -0.7572   -0.1627 CT        1 <0>       -0.09661
      5 C5         -1.3994    0.2666    1.4474 CT        1 <0>       -0.11982
      6 O1          0.6719    1.2257   -0.7829 OS        1 <0>       -0.42149
      7 O2         -0.8532   -1.5677   -0.0396 OH        1 <0>       -0.57245
      8 H1         -0.8023    0.2696   -1.9403 H1        1 <0>        0.05896
      9 H2         -1.4048    1.5803   -0.8899 H1        1 <0>        0.05896
     10 H3          1.2071    0.7450    1.1909 H1        1 <0>        0.06804
     11 H4          1.6460   -1.2526   -1.0867 HC        1 <0>        0.05099
     12 H5          2.0865   -1.5151    0.6116 HC        1 <0>        0.05099
     13 H6          2.9068   -0.2573   -0.3334 HC        1 <0>        0.05099
     14 H7         -1.2814   -0.4470    2.2640 HC        1 <0>        0.05009
     15 H8         -2.4563    0.3293    1.1850 HC        1 <0>        0.05009
     16 H9         -1.0619    1.2473    1.7857 HC        1 <0>        0.05009
     17 H10        -1.7550   -1.5948   -0.3823 HO        1 <0>        0.40620
@<TRIPOS>BOND
     1    1    3 1
     2    1    6 1
     3    2    3 1
     4    2    4 1
     5    2    6 1
     6    3    5 1
     7    3    7 1
     8    1    8 1
     9    1    9 1
    10    2   10 1
    11    4   11 1
    12    4   12 1
    13    4   13 1
    14    5   14 1
    15    5   15 1
    16    5   16 1
    17    7   17 1
@<TRIPOS>SUBSTRUCTURE
     1 <0>         1 GROUP 0 A     ****
