@<TRIPOS>MOLECULE
AlkEthOH_r8
   12    12     1     0     0
SMALL
USER_CHARGES

@<TRIPOS>ATOM
      1 C1         -0.0540    1.1811    0.3680 CT        1 <0>        0.11744
      2 C2         -0.8838   -0.9043    0.6295 CT        1 <0>        0.33875
      3 C3          0.2877    0.3511   -0.8449 CT        1 <0>        0.31414
      4 O1         -0.3577    0.2029    1.3647 OS        1 <0>       -0.44487
      5 O2         -0.6282   -0.7389   -0.7674 OS        1 <0>       -0.48049
      6 O3          1.6359   -0.0919   -0.7498 OH        1 <0>       -0.61359
      7 H1          0.7612    1.8217    0.7143 H1        1 <0>        0.07340
      8 H2         -0.9566    1.7798    0.2053 H1        1 <0>        0.07340
      9 H3         -0.4117   -1.8263    0.9817 H2        1 <0>        0.05765
     10 H4         -1.9640   -0.9699    0.7904 H2        1 <0>        0.05765
     11 H5          0.1585    0.9059   -1.7791 H2        1 <0>        0.07885
     12 H6          1.8133   -0.6190   -1.5453 HO        1 <0>        0.42767
@<TRIPOS>BOND
     1    1    3 1
     2    1    4 1
     3    2    4 1
     4    2    5 1
     5    3    5 1
     6    3    6 1
     7    1    7 1
     8    1    8 1
     9    2    9 1
    10    2   10 1
    11    3   11 1
    12    6   12 1
@<TRIPOS>SUBSTRUCTURE
     1 <0>         1 GROUP 0 A     ****
