@<TRIPOS>MOLECULE
AlkEthOH_c601
   29    28     1     0     0
SMALL
USER_CHARGES

@<TRIPOS>ATOM
      1 C1          3.1267   -0.6963   -1.4718 CT        1 <0>       -0.13272
      2 C2         -2.0598   -1.5545   -0.3787 CT        1 <0>       -0.12174
      3 C3         -1.1444   -1.2446    1.9207 CT        1 <0>       -0.12174
      4 C4          0.1445    1.4063    1.0514 CT        1 <0>       -0.12306
      5 C5          0.8003   -0.4917   -0.5161 CT        1 <0>       -0.06571
      6 C6          2.1008    0.2564   -0.8661 CT        1 <0>        0.14395
      7 C7         -1.5272   -0.5180    0.6199 CT        1 <0>        0.11884
      8 C8         -0.3726    0.3763    0.0340 CT        1 <0>        0.18483
      9 O1          1.8339    1.2886   -1.8084 OH        1 <0>       -0.57640
     10 O2         -2.6408    0.3276    0.9505 OH        1 <0>       -0.61213
     11 O3         -0.9084    1.1033   -1.0828 OH        1 <0>       -0.58242
     12 H1          2.7235   -1.1712   -2.3728 HC        1 <0>        0.04211
     13 H2          4.0484   -0.1711   -1.7398 HC        1 <0>        0.04211
     14 H3          3.3714   -1.5046   -0.7738 HC        1 <0>        0.04211
     15 H4         -2.3435   -1.0703   -1.3212 HC        1 <0>        0.04500
     16 H5         -1.2957   -2.2900   -0.6477 HC        1 <0>        0.04500
     17 H6         -2.9383   -2.0820    0.0042 HC        1 <0>        0.04500
     18 H7         -0.7561   -0.5498    2.6728 HC        1 <0>        0.04500
     19 H8         -2.0289   -1.7058    2.3769 HC        1 <0>        0.04500
     20 H9         -0.4051   -2.0329    1.7542 HC        1 <0>        0.04500
     21 H10        -0.6668    2.0245    1.4479 HC        1 <0>        0.04847
     22 H11         0.8368    2.1139    0.5821 HC        1 <0>        0.04847
     23 H12         0.6560    0.9277    1.8919 HC        1 <0>        0.04847
     24 H13         1.0482   -1.2751    0.2083 HC        1 <0>        0.05778
     25 H14         0.4576   -0.9862   -1.4347 HC        1 <0>        0.05778
     26 H15         2.5327    0.7133    0.0296 H1        1 <0>        0.02580
     27 H16         2.6775    1.7382   -1.9754 HO        1 <0>        0.39026
     28 H17        -3.3089   -0.2539    1.3374 HO        1 <0>        0.40369
     29 H18        -1.6207    1.6507   -0.7258 HO        1 <0>        0.41125
@<TRIPOS>BOND
     1    1    6 1
     2    2    7 1
     3    3    7 1
     4    4    8 1
     5    5    6 1
     6    5    8 1
     7    6    9 1
     8    7    8 1
     9    7   10 1
    10    8   11 1
    11    1   12 1
    12    1   13 1
    13    1   14 1
    14    2   15 1
    15    2   16 1
    16    2   17 1
    17    3   18 1
    18    3   19 1
    19    3   20 1
    20    4   21 1
    21    4   22 1
    22    4   23 1
    23    5   24 1
    24    5   25 1
    25    6   26 1
    26    9   27 1
    27   10   28 1
    28   11   29 1
@<TRIPOS>SUBSTRUCTURE
     1 <0>         1 GROUP 0 A     ****
