@<TRIPOS>MOLECULE
AlkEthOH_r243
   24    24     1     0     0
SMALL
USER_CHARGES

@<TRIPOS>ATOM
      1 C1          1.9592   -0.3981   -0.3739 CT        1 <0>       -0.14483
      2 C2         -0.2877   -0.8413    0.7298 CT        1 <0>       -0.13853
      3 C3          1.5138    0.5478   -1.4801 CT        1 <0>        0.12995
      4 C4         -0.7223    1.1130   -0.9083 CT        1 <0>        0.13602
      5 C5          1.1423   -0.3292    0.9190 CT        1 <0>        0.14585
      6 C6         -1.2866    0.1884    0.1758 CT        1 <0>        0.12934
      7 C7         -1.8853    1.0310    1.3092 CT        1 <0>       -0.12514
      8 O1          0.1344    0.4112   -1.8074 OS        1 <0>       -0.40001
      9 O2          1.8015   -1.1807    1.8614 OH        1 <0>       -0.59703
     10 O3         -2.3609   -0.5721   -0.3975 OH        1 <0>       -0.59040
     11 H1          1.9254   -1.4291   -0.7521 HC        1 <0>        0.05694
     12 H2          3.0164   -0.2085   -0.1485 HC        1 <0>        0.05694
     13 H3         -0.2690   -1.7287    0.0806 HC        1 <0>        0.06074
     14 H4         -0.6723   -1.2349    1.6811 HC        1 <0>        0.06074
     15 H5          1.7544    1.5888   -1.2331 H1        1 <0>        0.04864
     16 H6          2.0796    0.3089   -2.3876 H1        1 <0>        0.04864
     17 H7         -1.5413    1.5145   -1.5166 H1        1 <0>        0.06000
     18 H8         -0.2035    1.9760   -0.4730 H1        1 <0>        0.06000
     19 H9          1.1591    0.6847    1.3322 H1        1 <0>        0.07298
     20 H10        -2.5866    1.7500    0.8947 HC        1 <0>        0.04493
     21 H11        -1.0896    1.5591    1.8273 HC        1 <0>        0.04493
     22 H12        -2.4040    0.3813    2.0088 HC        1 <0>        0.04493
     23 H13         1.8012   -2.0669    1.4715 HO        1 <0>        0.39790
     24 H14        -2.7290   -1.0985    0.3251 HO        1 <0>        0.39647
@<TRIPOS>BOND
     1    1    3 1
     2    1    5 1
     3    2    5 1
     4    2    6 1
     5    3    8 1
     6    4    6 1
     7    4    8 1
     8    5    9 1
     9    6    7 1
    10    6   10 1
    11    1   11 1
    12    1   12 1
    13    2   13 1
    14    2   14 1
    15    3   15 1
    16    3   16 1
    17    4   17 1
    18    4   18 1
    19    5   19 1
    20    7   20 1
    21    7   21 1
    22    7   22 1
    23    9   23 1
    24   10   24 1
@<TRIPOS>SUBSTRUCTURE
     1 <0>         1 GROUP 0 A     ****
