@<TRIPOS>MOLECULE
AlkEthOH_r420
   32    32     1     0     0
SMALL
USER_CHARGES

@<TRIPOS>ATOM
      1 C1          2.0848    0.0348   -0.9826 CT        1 <0>       -0.05828
      2 C2          0.9868   -0.4528   -1.9284 CT        1 <0>       -0.11088
      3 C3          1.6473    0.5201    0.4069 CT        1 <0>       -0.09546
      4 C4         -0.1136    0.5667   -2.1986 CT        1 <0>        0.14387
      5 C5          0.6942   -0.4028    1.1984 CT        1 <0>        0.17718
      6 C6         -1.3567    0.2630   -0.1073 CT        1 <0>        0.35635
      7 C7          1.3673   -1.7725    1.4248 CT        1 <0>       -0.10449
      8 C8          0.4272    0.1889    2.5916 CT        1 <0>       -0.10449
      9 C9         -2.4700   -0.5343   -0.8080 CT        1 <0>       -0.10876
     10 C10        -2.0381    1.1759    0.9174 CT        1 <0>       -0.10876
     11 O1         -0.7018    1.1333   -1.0363 OS        1 <0>       -0.44704
     12 O2         -0.5273   -0.7203    0.5221 OS        1 <0>       -0.45454
     13 H1          2.8143   -0.7756   -0.8609 HC        1 <0>        0.03349
     14 H2          2.6313    0.8526   -1.4698 HC        1 <0>        0.03349
     15 H3          1.4484   -0.7229   -2.8866 HC        1 <0>        0.05121
     16 H4          0.5533   -1.3819   -1.5456 HC        1 <0>        0.05121
     17 H5          2.5592    0.6808    0.9990 HC        1 <0>        0.05188
     18 H6          1.2030    1.5172    0.3082 HC        1 <0>        0.05188
     19 H7          0.3169    1.4027   -2.7618 H1        1 <0>        0.04216
     20 H8         -0.8885    0.1379   -2.8426 H1        1 <0>        0.04216
     21 H9          0.6908   -2.4113    1.9803 HC        1 <0>        0.04166
     22 H10         2.2826   -1.6281    1.9865 HC        1 <0>        0.04166
     23 H11         1.5910   -2.2197    0.4635 HC        1 <0>        0.04166
     24 H12        -0.2430   -0.4672    3.1382 HC        1 <0>        0.04166
     25 H13        -0.0288    1.1681    2.4847 HC        1 <0>        0.04166
     26 H14         1.3659    0.2806    3.1290 HC        1 <0>        0.04166
     27 H15        -2.0270   -1.1961   -1.5450 HC        1 <0>        0.05131
     28 H16        -3.1499    0.1549   -1.2980 HC        1 <0>        0.05131
     29 H17        -3.0106   -1.1186   -0.0705 HC        1 <0>        0.05131
     30 H18        -1.2862    1.7619    1.4399 HC        1 <0>        0.05131
     31 H19        -2.5872    0.5717    1.6351 HC        1 <0>        0.05131
     32 H20        -2.7268    1.8452    0.4077 HC        1 <0>        0.05131
@<TRIPOS>BOND
     1    1    2 1
     2    1    3 1
     3    2    4 1
     4    3    5 1
     5    4   11 1
     6    5    7 1
     7    5    8 1
     8    5   12 1
     9    6    9 1
    10    6   10 1
    11    6   11 1
    12    6   12 1
    13    1   13 1
    14    1   14 1
    15    2   15 1
    16    2   16 1
    17    3   17 1
    18    3   18 1
    19    4   19 1
    20    4   20 1
    21    7   21 1
    22    7   22 1
    23    7   23 1
    24    8   24 1
    25    8   25 1
    26    8   26 1
    27    9   27 1
    28    9   28 1
    29    9   29 1
    30   10   30 1
    31   10   31 1
    32   10   32 1
@<TRIPOS>SUBSTRUCTURE
     1 <0>         1 GROUP 0 A     ****
