@<TRIPOS>MOLECULE
AlkEthOH_r162
   15    15     1     0     0
SMALL
USER_CHARGES

@<TRIPOS>ATOM
      1 C1          0.2063    0.9006    1.0387 CT        1 <0>       -0.17480
      2 C2          1.4498    0.5663    0.2209 CT        1 <0>        0.13434
      3 C3          0.0822   -0.4595   -1.3870 CT        1 <0>        0.32026
      4 C4         -0.9470   -0.0461    0.7010 CT        1 <0>        0.33666
      5 O1          1.1171    0.4959   -1.1643 OS        1 <0>       -0.43730
      6 O2         -1.1318   -0.1316   -0.7139 OS        1 <0>       -0.42501
      7 O3         -0.7768   -1.3256    1.3045 OH        1 <0>       -0.62574
      8 H1          0.4417    0.8748    2.1077 HC        1 <0>        0.06362
      9 H2         -0.1036    1.9191    0.7738 HC        1 <0>        0.06362
     10 H3          2.2095    1.3435    0.3499 H1        1 <0>        0.05510
     11 H4          1.8906   -0.3866    0.5362 H1        1 <0>        0.05510
     12 H5         -0.1302   -0.4705   -2.4600 H2        1 <0>        0.07371
     13 H6          0.4207   -1.4652   -1.1088 H2        1 <0>        0.07371
     14 H7         -1.8873    0.3842    1.1163 H2        1 <0>        0.07455
     15 H8         -0.7433   -1.1770    2.2622 HO        1 <0>        0.41218
@<TRIPOS>BOND
     1    1    2 1
     2    1    4 1
     3    2    5 1
     4    3    5 1
     5    3    6 1
     6    4    6 1
     7    4    7 1
     8    1    8 1
     9    1    9 1
    10    2   10 1
    11    2   11 1
    12    3   12 1
    13    3   13 1
    14    4   14 1
    15    7   15 1
@<TRIPOS>SUBSTRUCTURE
     1 <0>         1 GROUP 0 A     ****
