@<TRIPOS>MOLECULE
AlkEthOH_c247
   25    24     1     0     0
SMALL
USER_CHARGES

@<TRIPOS>ATOM
      1 C1          1.3923   -1.5204   -0.4715 CT        1 <0>       -0.11672
      2 C2          2.5635    0.5962    0.1155 CT        1 <0>       -0.11672
      3 C3         -1.1867    1.3930    1.6084 CT        1 <0>       -0.11435
      4 C4         -2.1928    0.1470   -1.7002 CT        1 <0>        0.33796
      5 C5          1.2904   -0.2237    0.3352 CT        1 <0>        0.37405
      6 C6         -1.0889    0.4339    0.4144 CT        1 <0>        0.55300
      7 O1         -1.2709    0.5772   -2.6910 OH        1 <0>       -0.61080
      8 O2          1.2359   -0.5051    1.7311 OH        1 <0>       -0.61554
      9 O3         -1.4044   -0.8878    0.8563 OH        1 <0>       -0.66377
     10 O4         -2.1027    0.9046   -0.4975 OS        1 <0>       -0.46689
     11 O5          0.2214    0.5963   -0.1501 OS        1 <0>       -0.48531
     12 H1          0.4963   -2.1369   -0.3396 HC        1 <0>        0.05560
     13 H2          1.4789   -1.3265   -1.5443 HC        1 <0>        0.05560
     14 H3          2.2731   -2.1017   -0.1792 HC        1 <0>        0.05560
     15 H4          2.5160    1.5328    0.6839 HC        1 <0>        0.05560
     16 H5          2.6904    0.8656   -0.9386 HC        1 <0>        0.05560
     17 H6          3.4530    0.0568    0.4583 HC        1 <0>        0.05560
     18 H7         -0.9503    2.4194    1.3055 HC        1 <0>        0.06725
     19 H8         -2.1892    1.4019    2.0458 HC        1 <0>        0.06725
     20 H9         -0.4821    1.1062    2.3972 HC        1 <0>        0.06725
     21 H10        -2.0797   -0.9277   -1.5202 H2        1 <0>        0.06262
     22 H11        -3.1957    0.3094   -2.1055 H2        1 <0>        0.06262
     23 H12        -1.4017    0.0101   -3.4694 HO        1 <0>        0.41698
     24 H13         2.0487   -0.9784    1.9755 HO        1 <0>        0.42098
     25 H14        -2.3068   -0.8991    1.2157 HO        1 <0>        0.42654
@<TRIPOS>BOND
     1    1    5 1
     2    2    5 1
     3    3    6 1
     4    4    7 1
     5    4   10 1
     6    5    8 1
     7    5   11 1
     8    6    9 1
     9    6   10 1
    10    6   11 1
    11    1   12 1
    12    1   13 1
    13    1   14 1
    14    2   15 1
    15    2   16 1
    16    2   17 1
    17    3   18 1
    18    3   19 1
    19    3   20 1
    20    4   21 1
    21    4   22 1
    22    7   23 1
    23    8   24 1
    24    9   25 1
@<TRIPOS>SUBSTRUCTURE
     1 <0>         1 GROUP 0 A     ****
