@<TRIPOS>MOLECULE
AlkEthOH_c141
   26    25     1     0     0
SMALL
USER_CHARGES

@<TRIPOS>ATOM
      1 C1         -0.4837    0.2969   -1.9073 CT        1 <0>       -0.08824
      2 C2          1.5680    1.0080   -0.6967 CT        1 <0>       -0.08820
      3 C3          1.0433   -1.4099   -0.9401 CT        1 <0>       -0.08820
      4 C4         -1.5680   -1.0080    0.6967 CT        1 <0>       -0.08820
      5 C5         -1.0433    1.4098    0.9400 CT        1 <0>       -0.08820
      6 C6          0.4837   -0.2968    1.9073 CT        1 <0>       -0.08820
      7 C7          0.4109   -0.0203   -0.6844 CT        1 <0>       -0.03976
      8 C8         -0.4109    0.0202    0.6844 CT        1 <0>       -0.03976
      9 H1         -1.3356   -0.3854   -1.9810 HC        1 <0>        0.03382
     10 H2         -0.8966    1.3108   -1.8371 HC        1 <0>        0.03382
     11 H3          0.0760    0.2512   -2.8465 HC        1 <0>        0.03382
     12 H4          2.2578    0.8600    0.1392 HC        1 <0>        0.03382
     13 H5          1.2004    2.0380   -0.6613 HC        1 <0>        0.03382
     14 H6          2.1610    0.9181   -1.6151 HC        1 <0>        0.03382
     15 H7          1.6980   -1.7203   -0.1204 HC        1 <0>        0.03382
     16 H8          0.2683   -2.1806   -1.0343 HC        1 <0>        0.03382
     17 H9          1.6211   -1.4317   -1.8692 HC        1 <0>        0.03382
     18 H10        -1.1908   -2.0230    0.5206 HC        1 <0>        0.03382
     19 H11        -2.3053   -0.8060   -0.0856 HC        1 <0>        0.03382
     20 H12        -2.0859   -1.0296    1.6604 HC        1 <0>        0.03382
     21 H13        -0.2924    2.2057    0.9484 HC        1 <0>        0.03382
     22 H14        -1.8012    1.6598    0.1919 HC        1 <0>        0.03382
     23 H15        -1.5421    1.4387    1.9166 HC        1 <0>        0.03382
     24 H16         1.3355    0.3855    1.9808 HC        1 <0>        0.03382
     25 H17        -0.0821   -0.1973    2.8419 HC        1 <0>        0.03382
     26 H18         0.8653   -1.3220    1.8803 HC        1 <0>        0.03382
@<TRIPOS>BOND
     1    1    7 1
     2    2    7 1
     3    3    7 1
     4    4    8 1
     5    5    8 1
     6    6    8 1
     7    7    8 1
     8    1    9 1
     9    1   10 1
    10    1   11 1
    11    2   12 1
    12    2   13 1
    13    2   14 1
    14    3   15 1
    15    3   16 1
    16    3   17 1
    17    4   18 1
    18    4   19 1
    19    4   20 1
    20    5   21 1
    21    5   22 1
    22    5   23 1
    23    6   24 1
    24    6   25 1
    25    6   26 1
@<TRIPOS>SUBSTRUCTURE
     1 <0>         1 GROUP 0 A     ****
