@<TRIPOS>MOLECULE
AlkEthOH_c1085
   24    23     1     0     0
SMALL
USER_CHARGES

@<TRIPOS>ATOM
      1 C1          0.1334   -1.4115    3.2309 CT        1 <0>       -0.09185
      2 C2          1.5656   -0.0083   -0.7453 CT        1 <0>       -0.09172
      3 C3          0.6082   -0.4806    2.1248 CT        1 <0>       -0.08027
      4 C4         -0.2983   -0.5695    0.8943 CT        1 <0>       -0.07584
      5 C5         -0.8730    0.2141   -1.4234 CT        1 <0>       -0.08303
      6 C6         -0.6344    1.1874   -2.5722 CT        1 <0>        0.13360
      7 C7          0.1490    0.3352   -0.2750 CT        1 <0>       -0.06149
      8 O1         -1.6194    0.9604   -3.5731 OH        1 <0>       -0.60388
      9 H1          0.1108   -2.4452    2.8719 HC        1 <0>        0.03316
     10 H2          0.8031   -1.3675    4.0960 HC        1 <0>        0.03316
     11 H3         -0.8752   -1.1442    3.5623 HC        1 <0>        0.03316
     12 H4          1.6221   -1.0401   -1.1076 HC        1 <0>        0.03434
     13 H5          1.8899    0.6538   -1.5534 HC        1 <0>        0.03434
     14 H6          2.2950    0.1093    0.0614 HC        1 <0>        0.03434
     15 H7          0.6238    0.5479    2.5034 HC        1 <0>        0.03834
     16 H8          1.6366   -0.7502    1.8634 HC        1 <0>        0.03834
     17 H9         -1.3154   -0.2837    1.1925 HC        1 <0>        0.04028
     18 H10        -0.3524   -1.6122    0.5560 HC        1 <0>        0.04028
     19 H11        -0.8847   -0.8113   -1.8157 HC        1 <0>        0.05452
     20 H12        -1.8851    0.3868   -1.0335 HC        1 <0>        0.05452
     21 H13         0.3485    1.0386   -3.0276 H1        1 <0>        0.02070
     22 H14        -0.7204    2.2237   -2.2304 H1        1 <0>        0.02070
     23 H15         0.1477    1.3752    0.0763 HC        1 <0>        0.04576
     24 H16        -1.4416    1.5924   -4.2878 HO        1 <0>        0.39854
@<TRIPOS>BOND
     1    1    3 1
     2    2    7 1
     3    3    4 1
     4    4    7 1
     5    5    6 1
     6    5    7 1
     7    6    8 1
     8    1    9 1
     9    1   10 1
    10    1   11 1
    11    2   12 1
    12    2   13 1
    13    2   14 1
    14    3   15 1
    15    3   16 1
    16    4   17 1
    17    4   18 1
    18    5   19 1
    19    5   20 1
    20    6   21 1
    21    6   22 1
    22    7   23 1
    23    8   24 1
@<TRIPOS>SUBSTRUCTURE
     1 <0>         1 GROUP 0 A     ****
