@<TRIPOS>MOLECULE
AlkEthOH_r573
   30    30     1     0     0
SMALL
USER_CHARGES

@<TRIPOS>ATOM
      1 C1         -0.7469    1.1336    1.1427 CT        1 <0>       -0.09979
      2 C2          0.4659   -1.0130    0.2460 CT        1 <0>       -0.11717
      3 C3         -2.0278    0.9844    0.3135 CT        1 <0>        0.14114
      4 C4         -1.0725    0.5322   -1.8304 CT        1 <0>        0.33069
      5 C5          0.0189   -0.1723    1.4829 CT        1 <0>       -0.02747
      6 C6          1.0464   -0.3234   -1.0150 CT        1 <0>        0.36000
      7 C7         -0.8820   -1.0778    2.3577 CT        1 <0>       -0.09295
      8 C8          1.2398    0.2021    2.3513 CT        1 <0>       -0.09295
      9 C9          2.4644    0.2021   -0.7782 CT        1 <0>       -0.11307
     10 O1         -1.9144    0.0787   -0.7758 OS        1 <0>       -0.44865
     11 O2          0.2795    0.7942   -1.4692 OS        1 <0>       -0.43946
     12 O3          1.1288   -1.3410   -2.0255 OH        1 <0>       -0.63366
     13 H1         -0.0683    1.8277    0.6329 HC        1 <0>        0.05295
     14 H2         -1.0169    1.6516    2.0735 HC        1 <0>        0.05295
     15 H3          1.1837   -1.7785    0.5774 HC        1 <0>        0.05736
     16 H4         -0.3896   -1.6201   -0.0831 HC        1 <0>        0.05736
     17 H5         -2.8268    0.6014    0.9575 H1        1 <0>        0.04318
     18 H6         -2.3643    1.9629   -0.0491 H1        1 <0>        0.04318
     19 H7         -1.0998   -0.2133   -2.6320 H2        1 <0>        0.07338
     20 H8         -1.4925    1.4559   -2.2434 H2        1 <0>        0.07338
     21 H9         -0.3416   -1.9857    2.5907 HC        1 <0>        0.03536
     22 H10        -1.7822   -1.3113    1.8050 HC        1 <0>        0.03536
     23 H11        -1.1299   -0.5476    3.2676 HC        1 <0>        0.03536
     24 H12         1.7863   -0.7000    2.5980 HC        1 <0>        0.03536
     25 H13         0.8931    0.6838    3.2572 HC        1 <0>        0.03536
     26 H14         1.8752    0.8783    1.7925 HC        1 <0>        0.03536
     27 H15         2.8343    0.6772   -1.6840 HC        1 <0>        0.05203
     28 H16         3.1205   -0.6234   -0.5118 HC        1 <0>        0.05203
     29 H17         2.4546    0.9291    0.0307 HC        1 <0>        0.05203
     30 H18         1.7159   -2.0212   -1.6693 HO        1 <0>        0.41135
@<TRIPOS>BOND
     1    1    3 1
     2    1    5 1
     3    2    5 1
     4    2    6 1
     5    3   10 1
     6    4   10 1
     7    4   11 1
     8    5    7 1
     9    5    8 1
    10    6    9 1
    11    6   11 1
    12    6   12 1
    13    1   13 1
    14    1   14 1
    15    2   15 1
    16    2   16 1
    17    3   17 1
    18    3   18 1
    19    4   19 1
    20    4   20 1
    21    7   21 1
    22    7   22 1
    23    7   23 1
    24    8   24 1
    25    8   25 1
    26    8   26 1
    27    9   27 1
    28    9   28 1
    29    9   29 1
    30   12   30 1
@<TRIPOS>SUBSTRUCTURE
     1 <0>         1 GROUP 0 A     ****
