@<TRIPOS>MOLECULE
AlkEthOH_c405
   29    28     1     0     0
SMALL
USER_CHARGES

@<TRIPOS>ATOM
      1 C1          0.5634   -2.1284   -0.0533 CT        1 <0>       -0.09114
      2 C2          2.6930   -1.9032    1.2343 CT        1 <0>       -0.09114
      3 C3         -2.1055    0.5569   -2.6484 CT        1 <0>       -0.12494
      4 C4          0.1061    2.3697    0.5524 CT        1 <0>       -0.15635
      5 C5          1.3085    0.1772    0.6160 CT        1 <0>       -0.09339
      6 C6          1.2983   -1.3172    1.0195 CT        1 <0>       -0.05939
      7 C7         -1.8066    1.0492   -1.2411 CT        1 <0>        0.33755
      8 C8         -0.0744    0.8493    0.4443 CT        1 <0>        0.36025
      9 O1         -2.8695    0.6054   -0.4044 OH        1 <0>       -0.61279
     10 O2         -0.9092    0.3997    1.5107 OH        1 <0>       -0.60575
     11 O3         -0.5526    0.4905   -0.8578 OS        1 <0>       -0.44764
     12 H1          1.0789   -2.0579   -1.0168 HC        1 <0>        0.03591
     13 H2          0.5007   -3.1867    0.2223 HC        1 <0>        0.03591
     14 H3         -0.4561   -1.7541   -0.1948 HC        1 <0>        0.03591
     15 H4          3.3038   -1.8197    0.3294 HC        1 <0>        0.03591
     16 H5          2.6328   -2.9637    1.5030 HC        1 <0>        0.03591
     17 H6          3.2136   -1.3989    2.0533 HC        1 <0>        0.03591
     18 H7         -2.1379   -0.5367   -2.6815 HC        1 <0>        0.05375
     19 H8         -3.0804    0.9248   -2.9882 HC        1 <0>        0.05375
     20 H9         -1.3543    0.9175   -3.3581 HC        1 <0>        0.05375
     21 H10        -0.8492    2.8923    0.4370 HC        1 <0>        0.05447
     22 H11         0.5179    2.6579    1.5251 HC        1 <0>        0.05447
     23 H12         0.8114    2.7363   -0.2015 HC        1 <0>        0.05447
     24 H13         1.8455    0.2444   -0.3403 HC        1 <0>        0.05188
     25 H14         1.8945    0.7400    1.3552 HC        1 <0>        0.05188
     26 H15         0.7351   -1.4285    1.9545 HC        1 <0>        0.04832
     27 H16        -1.7824    2.1433   -1.2482 H2        1 <0>        0.06970
     28 H17        -3.6903    0.9923   -0.7523 HO        1 <0>        0.41724
     29 H18        -0.4815    0.6264    2.3533 HO        1 <0>        0.40559
@<TRIPOS>BOND
     1    1    6 1
     2    2    6 1
     3    3    7 1
     4    4    8 1
     5    5    6 1
     6    5    8 1
     7    7    9 1
     8    7   11 1
     9    8   10 1
    10    8   11 1
    11    1   12 1
    12    1   13 1
    13    1   14 1
    14    2   15 1
    15    2   16 1
    16    2   17 1
    17    3   18 1
    18    3   19 1
    19    3   20 1
    20    4   21 1
    21    4   22 1
    22    4   23 1
    23    5   24 1
    24    5   25 1
    25    6   26 1
    26    7   27 1
    27    9   28 1
    28   10   29 1
@<TRIPOS>SUBSTRUCTURE
     1 <0>         1 GROUP 0 A     ****
