@<TRIPOS>MOLECULE
AlkEthOH_r937
   23    23     1     0     0
SMALL
USER_CHARGES

@<TRIPOS>ATOM
      1 C1          0.5565   -1.8040    0.8994 CT        1 <0>       -0.07566
      2 C2          1.0977   -0.7066    1.8118 CT        1 <0>       -0.10677
      3 C3          0.4554   -1.4332   -0.5820 CT        1 <0>       -0.07447
      4 C4          0.3732    0.6251    1.6818 CT        1 <0>        0.13509
      5 C5         -0.6306   -0.3811   -0.8557 CT        1 <0>       -0.08167
      6 C6         -0.1468    1.0666   -0.6298 CT        1 <0>        0.33392
      7 C7         -1.1661   -0.5254   -2.2874 CT        1 <0>       -0.09069
      8 O1          0.7499    1.2449    0.4609 OS        1 <0>       -0.45343
      9 O2         -1.2892    1.9138   -0.4988 OH        1 <0>       -0.62919
     10 H1          1.2101   -2.6799    0.9952 HC        1 <0>        0.03952
     11 H2         -0.4299   -2.1195    1.2619 HC        1 <0>        0.03952
     12 H3          1.0287   -1.0544    2.8491 HC        1 <0>        0.04919
     13 H4          2.1621   -0.5625    1.5876 HC        1 <0>        0.04919
     14 H5          1.4280   -1.0969   -0.9610 HC        1 <0>        0.04732
     15 H6          0.2120   -2.3550   -1.1257 HC        1 <0>        0.04732
     16 H7         -0.7134    0.5294    1.7851 H1        1 <0>        0.05094
     17 H8          0.7162    1.2853    2.4858 H1        1 <0>        0.05094
     18 H9         -1.4862   -0.5768   -0.1949 HC        1 <0>        0.07082
     19 H10         0.3990    1.4006   -1.5206 H2        1 <0>        0.06492
     20 H11        -0.3618   -0.3425   -2.9939 HC        1 <0>        0.04004
     21 H12        -1.9623    0.1952   -2.4494 HC        1 <0>        0.04004
     22 H13        -1.5520   -1.5308   -2.4289 HC        1 <0>        0.04004
     23 H14        -0.9496    2.8104   -0.3589 HO        1 <0>        0.41307
@<TRIPOS>BOND
     1    1    2 1
     2    1    3 1
     3    2    4 1
     4    3    5 1
     5    4    8 1
     6    5    6 1
     7    5    7 1
     8    6    8 1
     9    6    9 1
    10    1   10 1
    11    1   11 1
    12    2   12 1
    13    2   13 1
    14    3   14 1
    15    3   15 1
    16    4   16 1
    17    4   17 1
    18    5   18 1
    19    6   19 1
    20    7   20 1
    21    7   21 1
    22    7   22 1
    23    9   23 1
@<TRIPOS>SUBSTRUCTURE
     1 <0>         1 GROUP 0 A     ****
