@<TRIPOS>MOLECULE
AlkEthOH_r557
   27    27     1     0     0
SMALL
USER_CHARGES

@<TRIPOS>ATOM
      1 C1          1.1425   -0.0384   -1.2665 CT        1 <0>       -0.13605
      2 C2         -1.5938    0.1775    0.3705 CT        1 <0>       -0.13594
      3 C3         -0.0648    0.3902   -2.0937 CT        1 <0>        0.13460
      4 C4         -1.7741    1.2750   -0.6759 CT        1 <0>        0.13460
      5 C5          0.8052   -0.7548    0.0569 CT        1 <0>        0.17424
      6 C6         -0.1886    0.0106    0.9917 CT        1 <0>        0.17424
      7 C7          2.1282   -1.1046    0.7652 CT        1 <0>       -0.12656
      8 C8          0.3640    1.3467    1.5075 CT        1 <0>       -0.12656
      9 O1         -0.6535    1.5375   -1.5028 OS        1 <0>       -0.42491
     10 O2          0.2111   -2.0144   -0.3070 OH        1 <0>       -0.59346
     11 O3         -0.3763   -0.8253    2.1540 OH        1 <0>       -0.59346
     12 H1          1.7377   -0.7172   -1.8917 HC        1 <0>        0.05909
     13 H2          1.7638    0.8413   -1.0577 HC        1 <0>        0.05909
     14 H3         -2.3322    0.3495    1.1666 HC        1 <0>        0.05909
     15 H4         -1.9108   -0.7786   -0.0665 HC        1 <0>        0.05909
     16 H5          0.2889    0.6974   -3.0842 H1        1 <0>        0.04826
     17 H6         -0.7901   -0.4164   -2.2501 H1        1 <0>        0.04826
     18 H7         -2.6373    1.0457   -1.3118 H1        1 <0>        0.04826
     19 H8         -2.0105    2.2166   -0.1676 H1        1 <0>        0.04826
     20 H9          1.9086   -1.6097    1.6991 HC        1 <0>        0.04922
     21 H10         2.6781   -0.1913    0.9622 HC        1 <0>        0.04922
     22 H11         2.7132   -1.7549    0.1246 HC        1 <0>        0.04922
     23 H12         1.3495    1.1883    1.9352 HC        1 <0>        0.04922
     24 H13        -0.3025    1.7431    2.2676 HC        1 <0>        0.04922
     25 H14         0.4344    2.0500    0.6831 HC        1 <0>        0.04922
     26 H15         0.8812   -2.4805   -0.8231 HO        1 <0>        0.39727
     27 H16        -0.9870   -0.3419    2.7230 HO        1 <0>        0.39727
@<TRIPOS>BOND
     1    1    3 1
     2    1    5 1
     3    2    4 1
     4    2    6 1
     5    3    9 1
     6    4    9 1
     7    5    6 1
     8    5    7 1
     9    5   10 1
    10    6    8 1
    11    6   11 1
    12    1   12 1
    13    1   13 1
    14    2   14 1
    15    2   15 1
    16    3   16 1
    17    3   17 1
    18    4   18 1
    19    4   19 1
    20    7   20 1
    21    7   21 1
    22    7   22 1
    23    8   23 1
    24    8   24 1
    25    8   25 1
    26   10   26 1
    27   11   27 1
@<TRIPOS>SUBSTRUCTURE
     1 <0>         1 GROUP 0 A     ****
