@<TRIPOS>MOLECULE
AlkEthOH_r27
   14    14     1     0     0
SMALL
USER_CHARGES

@<TRIPOS>ATOM
      1 C1         -0.1061   -1.0748    0.1688 CT        1 <0>       -0.11175
      2 C2          0.7658   -1.9197   -0.7287 CT        1 <0>       -0.10431
      3 C3         -1.4895   -1.5907   -0.1610 CT        1 <0>        0.12916
      4 C4          0.0535   -3.2591   -0.6845 CT        1 <0>        0.33019
      5 O1         -1.3434   -2.9652   -0.5451 OS        1 <0>       -0.46199
      6 O2          0.5283   -4.0017    0.4330 OH        1 <0>       -0.62776
      7 H1          0.1301   -1.2798    1.2197 HC        1 <0>        0.05965
      8 H2         -0.0002   -0.0001   -0.0005 HC        1 <0>        0.05965
      9 H3          0.7370   -1.5122   -1.7461 HC        1 <0>        0.06706
     10 H4          1.8048   -1.9608   -0.3901 HC        1 <0>        0.06706
     11 H5         -2.1788   -1.5148    0.6847 H1        1 <0>        0.05013
     12 H6         -1.9205   -1.0522   -1.0117 H1        1 <0>        0.05013
     13 H7          0.2250   -3.8416   -1.5952 H2        1 <0>        0.06823
     14 H8          0.0522   -4.8472    0.4277 HO        1 <0>        0.42455
@<TRIPOS>BOND
     1    1    2 1
     2    1    3 1
     3    2    4 1
     4    3    5 1
     5    4    5 1
     6    4    6 1
     7    1    7 1
     8    1    8 1
     9    2    9 1
    10    2   10 1
    11    3   11 1
    12    3   12 1
    13    4   13 1
    14    6   14 1
@<TRIPOS>SUBSTRUCTURE
     1 <0>         1 GROUP 0 A     ****
