@<TRIPOS>MOLECULE
AlkEthOH_r1089
   29    29     1     0     0
SMALL
USER_CHARGES

@<TRIPOS>ATOM
      1 C1          0.7175    0.4922    2.4011 CT        1 <0>       -0.12183
      2 C2          1.2141   -0.8536    1.8777 CT        1 <0>        0.13142
      3 C3         -0.4373    1.0688    1.5851 CT        1 <0>        0.13590
      4 C4          0.9780   -1.4239   -0.4364 CT        1 <0>        0.14096
      5 C5         -0.4762   -0.9392   -0.6404 CT        1 <0>       -0.11866
      6 C6         -0.6182    0.6117   -0.8164 CT        1 <0>        0.16895
      7 C7         -1.1091   -1.7534   -1.7781 CT        1 <0>       -0.08897
      8 C8         -2.0911    1.0499   -0.9239 CT        1 <0>       -0.10349
      9 C9          0.1102    1.1096   -2.0781 CT        1 <0>       -0.10349
     10 O1          1.7090   -0.7029    0.5504 OS        1 <0>       -0.40167
     11 O2          0.0032    1.3409    0.2589 OS        1 <0>       -0.41057
     12 H1          0.4096    0.3857    3.4468 HC        1 <0>        0.05716
     13 H2          1.5524    1.2032    2.3649 HC        1 <0>        0.05716
     14 H3          2.0530   -1.1862    2.4985 H1        1 <0>        0.03621
     15 H4          0.4357   -1.6214    1.9516 H1        1 <0>        0.03621
     16 H5         -1.3109    0.4124    1.6284 H1        1 <0>        0.03575
     17 H6         -0.7349    2.0266    2.0254 H1        1 <0>        0.03575
     18 H7          0.9945   -2.4906   -0.1787 H1        1 <0>        0.04476
     19 H8          1.5365   -1.3274   -1.3740 H1        1 <0>        0.04476
     20 H9         -1.0283   -1.2165    0.2652 HC        1 <0>        0.04656
     21 H10        -0.6035   -1.5231   -2.7112 HC        1 <0>        0.03803
     22 H11        -2.1612   -1.4979   -1.8626 HC        1 <0>        0.03803
     23 H12        -1.0088   -2.8131   -1.5625 HC        1 <0>        0.03803
     24 H13        -2.1342    2.1268   -1.0439 HC        1 <0>        0.04384
     25 H14        -2.6154    0.7603   -0.0200 HC        1 <0>        0.04384
     26 H15        -2.5446    0.5666   -1.7822 HC        1 <0>        0.04384
     27 H16        -0.0134    2.1840   -2.1609 HC        1 <0>        0.04384
     28 H17        -0.3142    0.6240   -2.9502 HC        1 <0>        0.04384
     29 H18         1.1646    0.8671   -2.0005 HC        1 <0>        0.04384
@<TRIPOS>BOND
     1    1    2 1
     2    1    3 1
     3    2   10 1
     4    3   11 1
     5    4    5 1
     6    4   10 1
     7    5    6 1
     8    5    7 1
     9    6    8 1
    10    6    9 1
    11    6   11 1
    12    1   12 1
    13    1   13 1
    14    2   14 1
    15    2   15 1
    16    3   16 1
    17    3   17 1
    18    4   18 1
    19    4   19 1
    20    5   20 1
    21    7   21 1
    22    7   22 1
    23    7   23 1
    24    8   24 1
    25    8   25 1
    26    8   26 1
    27    9   27 1
    28    9   28 1
    29    9   29 1
@<TRIPOS>SUBSTRUCTURE
     1 <0>         1 GROUP 0 A     ****
