@<TRIPOS>MOLECULE
AlkEthOH_r1084
   30    30     1     0     0
SMALL
USER_CHARGES

@<TRIPOS>ATOM
      1 C1         -1.6017   -1.9341    0.8144 CT        1 <0>       -0.09536
      2 C2         -0.3381   -1.7129    1.6470 CT        1 <0>        0.12877
      3 C3         -1.6072   -1.1261   -0.4839 CT        1 <0>        0.13729
      4 C4          1.7837   -0.7973    0.9832 CT        1 <0>        0.12707
      5 C5          1.2920    0.6020    0.5821 CT        1 <0>        0.11064
      6 C6         -0.5421    0.9975   -0.9687 CT        1 <0>        0.34569
      7 C7          2.4423    1.6012    0.6533 CT        1 <0>       -0.11016
      8 C8         -0.8388    0.8742   -2.4718 CT        1 <0>       -0.10850
      9 C9         -0.7032    2.4787   -0.5924 CT        1 <0>       -0.10850
     10 O1          0.7981   -1.8102    0.7946 OS        1 <0>       -0.41400
     11 O2         -1.5010    0.2641   -0.1892 OS        1 <0>       -0.45569
     12 O3          0.8161    0.5628   -0.7687 OS        1 <0>       -0.43618
     13 H1         -1.6796   -2.9960    0.5528 HC        1 <0>        0.05306
     14 H2         -2.4744   -1.6782    1.4256 HC        1 <0>        0.05306
     15 H3         -0.3933   -0.7532    2.1697 H1        1 <0>        0.03670
     16 H4         -0.2579   -2.4910    2.4136 H1        1 <0>        0.03670
     17 H5         -0.7991   -1.4782   -1.1337 H1        1 <0>        0.04714
     18 H6         -2.5525   -1.2868   -1.0129 H1        1 <0>        0.04714
     19 H7          2.6299   -1.0832    0.3485 H1        1 <0>        0.05199
     20 H8          2.1300   -0.8143    2.0232 H1        1 <0>        0.05199
     21 H9          0.5055    0.9252    1.2694 H1        1 <0>        0.05814
     22 H10         3.2393    1.2985   -0.0249 HC        1 <0>        0.04319
     23 H11         2.8361    1.6419    1.6683 HC        1 <0>        0.04319
     24 H12         2.0909    2.5924    0.3686 HC        1 <0>        0.04319
     25 H13        -0.7343   -0.1629   -2.7748 HC        1 <0>        0.05224
     26 H14        -0.1377    1.4886   -3.0280 HC        1 <0>        0.05224
     27 H15        -1.8524    1.2104   -2.6667 HC        1 <0>        0.05224
     28 H16        -0.5006    2.6048    0.4667 HC        1 <0>        0.05224
     29 H17        -1.7184    2.7964   -0.8090 HC        1 <0>        0.05224
     30 H18        -0.0038    3.0747   -1.1704 HC        1 <0>        0.05224
@<TRIPOS>BOND
     1    1    2 1
     2    1    3 1
     3    2   10 1
     4    3   11 1
     5    4    5 1
     6    4   10 1
     7    5    7 1
     8    5   12 1
     9    6    8 1
    10    6    9 1
    11    6   11 1
    12    6   12 1
    13    1   13 1
    14    1   14 1
    15    2   15 1
    16    2   16 1
    17    3   17 1
    18    3   18 1
    19    4   19 1
    20    4   20 1
    21    5   21 1
    22    7   22 1
    23    7   23 1
    24    7   24 1
    25    8   25 1
    26    8   26 1
    27    8   27 1
    28    9   28 1
    29    9   29 1
    30    9   30 1
@<TRIPOS>SUBSTRUCTURE
     1 <0>         1 GROUP 0 A     ****
