@<TRIPOS>MOLECULE
AlkEthOH_c741
   22    21     1     0     0
SMALL
USER_CHARGES

@<TRIPOS>ATOM
      1 C1         -0.3044    0.1362    1.0427 CT        1 <0>       -0.09162
      2 C2          2.0899    0.2803    1.7951 CT        1 <0>       -0.07752
      3 C3          0.8024   -1.9628    1.9364 CT        1 <0>       -0.07752
      4 C4          3.2156   -0.1987    2.7062 CT        1 <0>        0.13092
      5 C5          1.2378   -2.5285    0.5894 CT        1 <0>        0.13092
      6 C6          0.7363   -0.4262    2.0174 CT        1 <0>       -0.06337
      7 O1          2.8763    0.0374    4.0644 OH        1 <0>       -0.60201
      8 O2          1.2740   -3.9479    0.6852 OH        1 <0>       -0.60201
      9 H1         -0.0166   -0.0779    0.0076 HC        1 <0>        0.03378
     10 H2         -1.2944   -0.3008    1.2085 HC        1 <0>        0.03378
     11 H3         -0.3884    1.2234    1.1449 HC        1 <0>        0.03378
     12 H4          1.9417    1.3534    1.9753 HC        1 <0>        0.05129
     13 H5          2.4061    0.1798    0.7503 HC        1 <0>        0.05129
     14 H6         -0.1815   -2.3799    2.1907 HC        1 <0>        0.05129
     15 H7          1.4711   -2.3475    2.7166 HC        1 <0>        0.05129
     16 H8          4.1338    0.3534    2.4806 H1        1 <0>        0.02090
     17 H9          3.4175   -1.2651    2.5704 H1        1 <0>        0.02090
     18 H10         2.2378   -2.1826    0.3141 H1        1 <0>        0.02090
     19 H11         0.5340   -2.2598   -0.2033 H1        1 <0>        0.02090
     20 H12         0.3867   -0.1771    3.0284 HC        1 <0>        0.06631
     21 H13         3.6203   -0.2829    4.6004 HO        1 <0>        0.39790
     22 H14         1.5532   -4.2785   -0.1834 HO        1 <0>        0.39790
@<TRIPOS>BOND
     1    1    6 1
     2    2    4 1
     3    2    6 1
     4    3    5 1
     5    3    6 1
     6    4    7 1
     7    5    8 1
     8    1    9 1
     9    1   10 1
    10    1   11 1
    11    2   12 1
    12    2   13 1
    13    3   14 1
    14    3   15 1
    15    4   16 1
    16    4   17 1
    17    5   18 1
    18    5   19 1
    19    6   20 1
    20    7   21 1
    21    8   22 1
@<TRIPOS>SUBSTRUCTURE
     1 <0>         1 GROUP 0 A     ****
