@<TRIPOS>MOLECULE
AlkEthOH_c75
   29    28     1     0     0
SMALL
USER_CHARGES

@<TRIPOS>ATOM
      1 C1          1.4335    2.4124    1.2097 CT        1 <0>       -0.12681
      2 C2         -2.0926   -1.6103    1.4192 CT        1 <0>       -0.12303
      3 C3         -0.0406   -2.5468    0.3521 CT        1 <0>       -0.12303
      4 C4          0.5407    0.1220   -1.8581 CT        1 <0>       -0.11202
      5 C5         -0.3725    0.0067    0.5496 CT        1 <0>       -0.05690
      6 C6          1.1124    1.9693   -0.2131 CT        1 <0>        0.10534
      7 C7         -1.0305   -1.3828    0.3325 CT        1 <0>        0.15930
      8 C8          0.7876    0.4562   -0.3831 CT        1 <0>        0.17251
      9 O1          2.2308    2.3267   -1.0297 OH        1 <0>       -0.61451
     10 O2         -1.7082   -1.4143   -0.9245 OH        1 <0>       -0.60260
     11 O3          1.9697   -0.2495    0.0251 OH        1 <0>       -0.60648
     12 H1          2.2764    1.8307    1.6003 HC        1 <0>        0.04665
     13 H2          1.7041    3.4704    1.2588 HC        1 <0>        0.04665
     14 H3          0.5976    2.2263    1.8909 HC        1 <0>        0.04665
     15 H4         -2.8208   -0.7911    1.4327 HC        1 <0>        0.04419
     16 H5         -2.6311   -2.5513    1.2665 HC        1 <0>        0.04419
     17 H6         -1.6353   -1.6306    2.4153 HC        1 <0>        0.04419
     18 H7          0.7379   -2.4288   -0.4079 HC        1 <0>        0.04419
     19 H8          0.4307   -2.6596    1.3336 HC        1 <0>        0.04419
     20 H9         -0.5458   -3.4888    0.1068 HC        1 <0>        0.04419
     21 H10         1.3684    0.4467   -2.4958 HC        1 <0>        0.05070
     22 H11         0.4090   -0.9582   -1.9931 HC        1 <0>        0.05070
     23 H12        -0.3858    0.5759   -2.2240 HC        1 <0>        0.05070
     24 H13        -1.1710    0.7556    0.4782 HC        1 <0>        0.05728
     25 H14        -0.0033    0.0280    1.5840 HC        1 <0>        0.05728
     26 H15         0.2672    2.5666   -0.5777 H1        1 <0>        0.03970
     27 H16         2.3214    3.2882   -0.9597 HO        1 <0>        0.40390
     28 H17        -2.1179   -2.2897   -0.9919 HO        1 <0>        0.39745
     29 H18         2.6810    0.0721   -0.5451 HO        1 <0>        0.41543
@<TRIPOS>BOND
     1    1    6 1
     2    2    7 1
     3    3    7 1
     4    4    8 1
     5    5    7 1
     6    5    8 1
     7    6    8 1
     8    6    9 1
     9    7   10 1
    10    8   11 1
    11    1   12 1
    12    1   13 1
    13    1   14 1
    14    2   15 1
    15    2   16 1
    16    2   17 1
    17    3   18 1
    18    3   19 1
    19    3   20 1
    20    4   21 1
    21    4   22 1
    22    4   23 1
    23    5   24 1
    24    5   25 1
    25    6   26 1
    26    9   27 1
    27   10   28 1
    28   11   29 1
@<TRIPOS>SUBSTRUCTURE
     1 <0>         1 GROUP 0 A     ****
