@<TRIPOS>MOLECULE
AlkEthOH_r376
   31    31     1     0     0
SMALL
USER_CHARGES

@<TRIPOS>ATOM
      1 C1          2.1828   -0.0263    1.0180 CT        1 <0>       -0.07421
      2 C2          1.6976    1.3677    1.4009 CT        1 <0>       -0.07220
      3 C3          2.2925   -0.3025   -0.4771 CT        1 <0>       -0.07105
      4 C4          0.2794    1.7564    0.9829 CT        1 <0>       -0.07336
      5 C5          1.0042   -0.2708   -1.3016 CT        1 <0>       -0.10565
      6 C6         -0.7852    0.6845    1.2321 CT        1 <0>       -0.06806
      7 C7         -0.1891   -1.0122   -0.6761 CT        1 <0>        0.15709
      8 C8         -1.2893   -0.1362    0.0087 CT        1 <0>       -0.03741
      9 C9         -2.3872   -1.0940    0.5525 CT        1 <0>       -0.08725
     10 C10        -1.9910    0.7947   -1.0080 CT        1 <0>       -0.08725
     11 O1         -0.8147   -1.7613   -1.7324 OH        1 <0>       -0.60795
     12 H1          3.1866   -0.1503    1.4464 HC        1 <0>        0.03819
     13 H2          1.5736   -0.7933    1.5066 HC        1 <0>        0.03819
     14 H3          1.7601    1.4465    2.4945 HC        1 <0>        0.03551
     15 H4          2.3961    2.1174    1.0087 HC        1 <0>        0.03551
     16 H5          3.0093    0.3984   -0.9230 HC        1 <0>        0.03562
     17 H6          2.7393   -1.2990   -0.5932 HC        1 <0>        0.03562
     18 H7          0.0120    2.6386    1.5813 HC        1 <0>        0.03903
     19 H8          0.2704    2.1183   -0.0468 HC        1 <0>        0.03903
     20 H9          0.7523    0.7604   -1.5560 HC        1 <0>        0.04785
     21 H10         1.2473   -0.7260   -2.2724 HC        1 <0>        0.04785
     22 H11        -0.4584    0.0052    2.0292 HC        1 <0>        0.03925
     23 H12        -1.6564    1.2072    1.6543 HC        1 <0>        0.03925
     24 H13         0.1757   -1.7614    0.0395 H1        1 <0>        0.03081
     25 H14        -2.7636   -1.6833   -0.2701 HC        1 <0>        0.03827
     26 H15        -3.1774   -0.4975    0.9830 HC        1 <0>        0.03827
     27 H16        -1.9430   -1.7313    1.3022 HC        1 <0>        0.03827
     28 H17        -2.3316    0.2022   -1.8472 HC        1 <0>        0.03827
     29 H18        -1.2837    1.5421   -1.3434 HC        1 <0>        0.03827
     30 H19        -2.8331    1.2707   -0.5226 HC        1 <0>        0.03827
     31 H20        -0.1374   -2.3658   -2.0630 HO        1 <0>        0.39597
@<TRIPOS>BOND
     1    1    2 1
     2    1    3 1
     3    2    4 1
     4    3    5 1
     5    4    6 1
     6    5    7 1
     7    6    8 1
     8    7    8 1
     9    7   11 1
    10    8    9 1
    11    8   10 1
    12    1   12 1
    13    1   13 1
    14    2   14 1
    15    2   15 1
    16    3   16 1
    17    3   17 1
    18    4   18 1
    19    4   19 1
    20    5   20 1
    21    5   21 1
    22    6   22 1
    23    6   23 1
    24    7   24 1
    25    9   25 1
    26    9   26 1
    27    9   27 1
    28   10   28 1
    29   10   29 1
    30   10   30 1
    31   11   31 1
@<TRIPOS>SUBSTRUCTURE
     1 <0>         1 GROUP 0 A     ****
