@<TRIPOS>MOLECULE
AlkEthOH_r454
   27    27     1     0     0
SMALL
USER_CHARGES

@<TRIPOS>ATOM
      1 C1         -1.5658   -0.5314   -0.7385 CT        1 <0>       -0.06544
      2 C2         -0.9597   -1.7076   -1.5161 CT        1 <0>       -0.08486
      3 C3         -0.8168    0.7951   -0.9236 CT        1 <0>       -0.10150
      4 C4          0.4974   -2.0186   -1.1739 CT        1 <0>        0.13242
      5 C5          0.5080    0.6368    1.2907 CT        1 <0>        0.14491
      6 C6          1.7488   -1.3172    0.7219 CT        1 <0>        0.31834
      7 C7         -0.3929    1.4978    0.3865 CT        1 <0>        0.14368
      8 C8         -1.6076    1.9937    1.1752 CT        1 <0>       -0.12367
      9 O1          0.6575   -2.1025    0.2402 OS        1 <0>       -0.45322
     10 O2          1.5793    0.0863    0.5214 OS        1 <0>       -0.43587
     11 O3          0.3517    2.6676    0.0160 OH        1 <0>       -0.59078
     12 H1         -2.5990   -0.3966   -1.0836 HC        1 <0>        0.04368
     13 H2         -1.6468   -0.8081    0.3175 HC        1 <0>        0.04368
     14 H3         -1.5661   -2.5938   -1.2907 HC        1 <0>        0.04447
     15 H4         -1.0477   -1.5294   -2.5943 HC        1 <0>        0.04447
     16 H5          0.0594    0.6735   -1.5715 HC        1 <0>        0.04951
     17 H6         -1.4617    1.4811   -1.4912 HC        1 <0>        0.04951
     18 H7          0.7734   -2.9890   -1.6003 H1        1 <0>        0.04150
     19 H8          1.1643   -1.2730   -1.6215 H1        1 <0>        0.04150
     20 H9          0.9668    1.2538    2.0719 H1        1 <0>        0.05226
     21 H10        -0.0726   -0.1468    1.7912 H1        1 <0>        0.05226
     22 H11         1.8781   -1.5207    1.7908 H2        1 <0>        0.06360
     23 H12         2.6696   -1.6291    0.2165 H2        1 <0>        0.06360
     24 H13        -1.2746    2.4813    2.0878 HC        1 <0>        0.04372
     25 H14        -2.2456    1.1509    1.4287 HC        1 <0>        0.04372
     26 H15        -2.1688    2.7024    0.5715 HC        1 <0>        0.04372
     27 H16        -0.2503    3.2094   -0.5119 HO        1 <0>        0.39479
@<TRIPOS>BOND
     1    1    2 1
     2    1    3 1
     3    2    4 1
     4    3    7 1
     5    4    9 1
     6    5    7 1
     7    5   10 1
     8    6    9 1
     9    6   10 1
    10    7    8 1
    11    7   11 1
    12    1   12 1
    13    1   13 1
    14    2   14 1
    15    2   15 1
    16    3   16 1
    17    3   17 1
    18    4   18 1
    19    4   19 1
    20    5   20 1
    21    5   21 1
    22    6   22 1
    23    6   23 1
    24    8   24 1
    25    8   25 1
    26    8   26 1
    27   11   27 1
@<TRIPOS>SUBSTRUCTURE
     1 <0>         1 GROUP 0 A     ****
