@<TRIPOS>MOLECULE
AlkEthOH_c169
   21    20     1     0     0
SMALL
USER_CHARGES

@<TRIPOS>ATOM
      1 C1          0.9830    0.4824    0.0436 CT        1 <0>       -0.08704
      2 C2          2.4836    2.2598   -0.8693 CT        1 <0>       -0.08704
      3 C3          0.0165    2.6668   -0.6900 CT        1 <0>       -0.08704
      4 C4          0.8906    1.0000   -2.4043 CT        1 <0>       -0.07609
      5 C5          1.0324    1.9635   -3.5790 CT        1 <0>        0.13284
      6 C6          1.0941    1.6140   -0.9966 CT        1 <0>       -0.05367
      7 O1          0.7873    1.2458   -4.7839 OH        1 <0>       -0.60551
      8 H1          0.0052   -0.0095   -0.0097 HC        1 <0>        0.03470
      9 H2          1.1089    0.8671    1.0619 HC        1 <0>        0.03470
     10 H3          1.7493   -0.2841   -0.1189 HC        1 <0>        0.03470
     11 H4          2.6088    3.0733   -1.5925 HC        1 <0>        0.03470
     12 H5          3.2772    1.5262   -1.0538 HC        1 <0>        0.03470
     13 H6          2.6502    2.6700    0.1321 HC        1 <0>        0.03470
     14 H7          0.0480    3.4991   -1.4009 HC        1 <0>        0.03470
     15 H8          0.1549    3.0917    0.3109 HC        1 <0>        0.03470
     16 H9         -0.9867    2.2281   -0.7285 HC        1 <0>        0.03470
     17 H10        -0.1021    0.5320   -2.4613 HC        1 <0>        0.05445
     18 H11         1.5992    0.1728   -2.5504 HC        1 <0>        0.05445
     19 H12         0.3064    2.7786   -3.5191 H1        1 <0>        0.02227
     20 H13         2.0410    2.3813   -3.6355 H1        1 <0>        0.02227
     21 H14         0.8841    1.8815   -5.5104 HO        1 <0>        0.39781
@<TRIPOS>BOND
     1    1    6 1
     2    2    6 1
     3    3    6 1
     4    4    5 1
     5    4    6 1
     6    5    7 1
     7    1    8 1
     8    1    9 1
     9    1   10 1
    10    2   11 1
    11    2   12 1
    12    2   13 1
    13    3   14 1
    14    3   15 1
    15    3   16 1
    16    4   17 1
    17    4   18 1
    18    5   19 1
    19    5   20 1
    20    7   21 1
@<TRIPOS>SUBSTRUCTURE
     1 <0>         1 GROUP 0 A     ****
