@<TRIPOS>MOLECULE
AlkEthOH_r261
   25    25     1     0     0
SMALL
USER_CHARGES

@<TRIPOS>ATOM
      1 C1          0.9693    0.1362    0.3804 CT        1 <0>       -0.09815
      2 C2         -1.2048   -0.7823    0.2733 CT        1 <0>        0.13002
      3 C3         -0.3228    0.0526    1.1927 CT        1 <0>       -0.08450
      4 C4          0.5227   -0.0121   -1.0831 CT        1 <0>        0.14432
      5 C5         -0.9333    1.4461    1.4098 CT        1 <0>       -0.08316
      6 C6         -0.1134   -0.6210    2.5492 CT        1 <0>       -0.08316
      7 C7          0.6704    1.2858   -1.8753 CT        1 <0>       -0.09729
      8 C8          1.2852   -1.1363   -1.7889 CT        1 <0>       -0.09729
      9 O1         -0.8734   -0.3690   -1.0582 OS        1 <0>       -0.42105
     10 H1          1.5253    1.0633    0.5613 HC        1 <0>        0.05408
     11 H2          1.6464   -0.6831    0.6548 HC        1 <0>        0.05408
     12 H3         -0.9899   -1.8543    0.3552 H1        1 <0>        0.04874
     13 H4         -2.2755   -0.6327    0.4426 H1        1 <0>        0.04874
     14 H5         -1.8471    1.3522    1.9883 HC        1 <0>        0.03847
     15 H6         -1.1565    1.8947    0.4468 HC        1 <0>        0.03847
     16 H7         -0.2248    2.0693    1.9466 HC        1 <0>        0.03847
     17 H8         -1.0567   -0.6582    3.0906 HC        1 <0>        0.03847
     18 H9          0.6116   -0.0562    3.1319 HC        1 <0>        0.03847
     19 H10         0.2558   -1.6342    2.4032 HC        1 <0>        0.03847
     20 H11         0.3426    1.1305   -2.9018 HC        1 <0>        0.04230
     21 H12         1.7126    1.6000   -1.8771 HC        1 <0>        0.04230
     22 H13         0.0627    2.0664   -1.4207 HC        1 <0>        0.04230
     23 H14         0.9476   -1.2159   -2.8196 HC        1 <0>        0.04230
     24 H15         1.1033   -2.0785   -1.2772 HC        1 <0>        0.04230
     25 H16         2.3509   -0.9196   -1.7753 HC        1 <0>        0.04230
@<TRIPOS>BOND
     1    1    3 1
     2    1    4 1
     3    2    3 1
     4    2    9 1
     5    3    5 1
     6    3    6 1
     7    4    7 1
     8    4    8 1
     9    4    9 1
    10    1   10 1
    11    1   11 1
    12    2   12 1
    13    2   13 1
    14    5   14 1
    15    5   15 1
    16    5   16 1
    17    6   17 1
    18    6   18 1
    19    6   19 1
    20    7   20 1
    21    7   21 1
    22    7   22 1
    23    8   23 1
    24    8   24 1
    25    8   25 1
@<TRIPOS>SUBSTRUCTURE
     1 <0>         1 GROUP 0 A     ****
