@<TRIPOS>MOLECULE
AlkEthOH_c365
   26    25     1     0     0
SMALL
USER_CHARGES

@<TRIPOS>ATOM
      1 C1          1.1328    0.2376    1.9041 CT        1 <0>       -0.09230
      2 C2         -0.3983    2.1927    1.7105 CT        1 <0>       -0.09230
      3 C3         -1.1457   -2.1557   -0.7558 CT        1 <0>       -0.08630
      4 C4          0.1163   -0.4625   -2.0859 CT        1 <0>       -0.08630
      5 C5          1.1888   -1.5254   -0.0998 CT        1 <0>       -0.08630
      6 C6         -0.7192    0.1699    0.1915 CT        1 <0>       -0.06430
      7 C7          0.2970    1.0738    0.9283 CT        1 <0>       -0.06151
      8 C8         -0.1380   -0.9954   -0.6605 CT        1 <0>       -0.05229
      9 H1          0.4930   -0.2503    2.6472 HC        1 <0>        0.03263
     10 H2          1.6978   -0.5402    1.3791 HC        1 <0>        0.03263
     11 H3          1.8451    0.8699    2.4450 HC        1 <0>        0.03263
     12 H4         -1.1065    1.7856    2.4407 HC        1 <0>        0.03263
     13 H5          0.3362    2.7938    2.2576 HC        1 <0>        0.03263
     14 H6         -0.9481    2.8695    1.0526 HC        1 <0>        0.03263
     15 H7         -1.3728   -2.5833    0.2255 HC        1 <0>        0.03350
     16 H8         -0.7525   -2.9678   -1.3783 HC        1 <0>        0.03350
     17 H9         -2.0894   -1.8239   -1.2033 HC        1 <0>        0.03350
     18 H10         0.8302    0.3689   -2.0757 HC        1 <0>        0.03350
     19 H11        -0.8109   -0.1017   -2.5454 HC        1 <0>        0.03350
     20 H12         0.5264   -1.2437   -2.7361 HC        1 <0>        0.03350
     21 H13         1.9307   -0.7224   -0.0188 HC        1 <0>        0.03350
     22 H14         1.6220   -2.2960   -0.7456 HC        1 <0>        0.03350
     23 H15         1.0534   -1.9502    0.9008 HC        1 <0>        0.03350
     24 H16        -1.3995   -0.2775    0.9300 HC        1 <0>        0.03804
     25 H17        -1.3573    0.7976   -0.4456 HC        1 <0>        0.03804
     26 H18         0.9903    1.5322    0.2161 HC        1 <0>        0.04824
@<TRIPOS>BOND
     1    1    7 1
     2    2    7 1
     3    3    8 1
     4    4    8 1
     5    5    8 1
     6    6    7 1
     7    6    8 1
     8    1    9 1
     9    1   10 1
    10    1   11 1
    11    2   12 1
    12    2   13 1
    13    2   14 1
    14    3   15 1
    15    3   16 1
    16    3   17 1
    17    4   18 1
    18    4   19 1
    19    4   20 1
    20    5   21 1
    21    5   22 1
    22    5   23 1
    23    6   24 1
    24    6   25 1
    25    7   26 1
@<TRIPOS>SUBSTRUCTURE
     1 <0>         1 GROUP 0 A     ****
