@<TRIPOS>MOLECULE
AlkEthOH_r618
   29    29     1     0     0
SMALL
USER_CHARGES

@<TRIPOS>ATOM
      1 C1         -1.3186    0.5498    1.6828 CT        1 <0>       -0.11206
      2 C2         -1.2216    1.0758    0.2485 CT        1 <0>       -0.09869
      3 C3         -1.4737   -0.9606    1.7998 CT        1 <0>        0.13365
      4 C4          0.5394   -1.3811    0.5761 CT        1 <0>        0.13348
      5 C5          0.7024   -0.4737   -0.6724 CT        1 <0>       -0.05565
      6 C6          0.1897    0.9946   -0.3949 CT        1 <0>        0.16413
      7 C7          2.2107   -0.4867   -1.0278 CT        1 <0>       -0.08532
      8 C8         -0.0562   -1.1188   -1.8572 CT        1 <0>       -0.08532
      9 C9          0.1674    1.8710   -1.6651 CT        1 <0>       -0.12424
     10 O1         -0.8280   -1.7091    0.7854 OS        1 <0>       -0.41981
     11 O2          1.0885    1.6389    0.5249 OH        1 <0>       -0.60445
     12 H1         -0.4456    0.8691    2.2634 HC        1 <0>        0.05031
     13 H2         -2.1781    1.0153    2.1818 HC        1 <0>        0.05031
     14 H3         -1.9756    0.5976   -0.3870 HC        1 <0>        0.04955
     15 H4         -1.5008    2.1377    0.3048 HC        1 <0>        0.04955
     16 H5         -1.1236   -1.3039    2.7802 H1        1 <0>        0.04171
     17 H6         -2.5376   -1.2158    1.7418 H1        1 <0>        0.04171
     18 H7          1.0514   -2.3353    0.4014 H1        1 <0>        0.05307
     19 H8          0.9990   -0.9470    1.4728 H1        1 <0>        0.05307
     20 H9          2.3675    0.1371   -1.8971 HC        1 <0>        0.03983
     21 H10         2.5082   -1.5045   -1.2394 HC        1 <0>        0.03983
     22 H11         2.7687   -0.1013   -0.1854 HC        1 <0>        0.03983
     23 H12         0.0564   -0.4874   -2.7287 HC        1 <0>        0.03983
     24 H13        -1.1021   -1.2079   -1.5945 HC        1 <0>        0.03983
     25 H14         0.3643   -2.0971   -2.0493 HC        1 <0>        0.03983
     26 H15         1.1420    1.8336   -2.1369 HC        1 <0>        0.04311
     27 H16        -0.0688    2.8909   -1.3862 HC        1 <0>        0.04311
     28 H17        -0.5862    1.4898   -2.3438 HC        1 <0>        0.04311
     29 H18         0.7699    2.5468    0.6114 HO        1 <0>        0.39669
@<TRIPOS>BOND
     1    1    2 1
     2    1    3 1
     3    2    6 1
     4    3   10 1
     5    4    5 1
     6    4   10 1
     7    5    6 1
     8    5    7 1
     9    5    8 1
    10    6    9 1
    11    6   11 1
    12    1   12 1
    13    1   13 1
    14    2   14 1
    15    2   15 1
    16    3   16 1
    17    3   17 1
    18    4   18 1
    19    4   19 1
    20    7   20 1
    21    7   21 1
    22    7   22 1
    23    8   23 1
    24    8   24 1
    25    8   25 1
    26    9   26 1
    27    9   27 1
    28    9   28 1
    29   11   29 1
@<TRIPOS>SUBSTRUCTURE
     1 <0>         1 GROUP 0 A     ****
