@<TRIPOS>MOLECULE
AlkEthOH_r804
   27    27     1     0     0
SMALL
USER_CHARGES

@<TRIPOS>ATOM
      1 C1          1.8326   -1.7536    0.4356 CT        1 <0>       -0.10410
      2 C2         -1.0378    1.1448   -0.6349 CT        1 <0>       -0.12543
      3 C3          1.0353   -1.2553    1.6411 CT        1 <0>        0.12932
      4 C4          1.0733   -1.5192   -0.8689 CT        1 <0>        0.13662
      5 C5         -0.4531    0.6004    1.8194 CT        1 <0>        0.10621
      6 C6         -1.4265    0.3891    0.6501 CT        1 <0>        0.11038
      7 C7         -0.2525    0.3102   -1.6625 CT        1 <0>        0.15125
      8 C8          0.0782    1.1569   -2.8884 CT        1 <0>       -0.10343
      9 O1          0.8673    0.1574    1.5430 OS        1 <0>       -0.39589
     10 O2          0.9862   -0.1153   -1.1022 OS        1 <0>       -0.40763
     11 O3         -2.7029    0.8846    1.0678 OH        1 <0>       -0.59930
     12 H1          2.7878   -1.2168    0.3939 HC        1 <0>        0.06133
     13 H2          2.0401   -2.8224    0.5532 HC        1 <0>        0.06133
     14 H3         -1.9478    1.5181   -1.1233 HC        1 <0>        0.05854
     15 H4         -0.4549    2.0339   -0.3608 HC        1 <0>        0.05854
     16 H5          0.0769   -1.7840    1.7048 H1        1 <0>        0.03379
     17 H6          1.5914   -1.4606    2.5618 H1        1 <0>        0.03379
     18 H7          1.6178   -1.9658   -1.7070 H1        1 <0>        0.02842
     19 H8          0.0876   -1.9945   -0.8077 H1        1 <0>        0.02842
     20 H9         -0.3963    1.6710    2.0501 H1        1 <0>        0.05039
     21 H10        -0.8282    0.1256    2.7353 H1        1 <0>        0.05039
     22 H11        -1.5531   -0.6751    0.4286 H1        1 <0>        0.07150
     23 H12        -0.8623   -0.5397   -1.9935 H1        1 <0>        0.03711
     24 H13         0.6850    2.0125   -2.5948 HC        1 <0>        0.04372
     25 H14        -0.8411    1.5147   -3.3502 HC        1 <0>        0.04372
     26 H15         0.6313    0.5601   -3.6124 HC        1 <0>        0.04372
     27 H16        -2.5860    1.8325    1.2253 HO        1 <0>        0.39729
@<TRIPOS>BOND
     1    1    3 1
     2    1    4 1
     3    2    6 1
     4    2    7 1
     5    3    9 1
     6    4   10 1
     7    5    6 1
     8    5    9 1
     9    6   11 1
    10    7    8 1
    11    7   10 1
    12    1   12 1
    13    1   13 1
    14    2   14 1
    15    2   15 1
    16    3   16 1
    17    3   17 1
    18    4   18 1
    19    4   19 1
    20    5   20 1
    21    5   21 1
    22    6   22 1
    23    7   23 1
    24    8   24 1
    25    8   25 1
    26    8   26 1
    27   11   27 1
@<TRIPOS>SUBSTRUCTURE
     1 <0>         1 GROUP 0 A     ****
