@<TRIPOS>MOLECULE
AlkEthOH_r382
   28    28     1     0     0
SMALL
USER_CHARGES

@<TRIPOS>ATOM
      1 C1          0.3957   -0.4922   -1.9485 CT        1 <0>       -0.07536
      2 C2         -0.0875   -1.8469   -1.4240 CT        1 <0>       -0.06983
      3 C3         -0.5836    0.6654   -1.7383 CT        1 <0>       -0.06626
      4 C4          0.5410   -2.2694   -0.0915 CT        1 <0>       -0.09716
      5 C5         -1.1350    0.8792   -0.3241 CT        1 <0>       -0.09549
      6 C6          0.1881   -1.3742    1.0902 CT        1 <0>        0.13387
      7 C7         -0.0990    1.0305    0.8130 CT        1 <0>        0.15729
      8 C8          0.8129    2.2394    0.5491 CT        1 <0>       -0.10288
      9 C9         -0.8140    1.2616    2.1554 CT        1 <0>       -0.10288
     10 O1          0.7815   -0.0934    0.9189 OS        1 <0>       -0.42030
     11 H1          1.3819   -0.2408   -1.5425 HC        1 <0>        0.04644
     12 H2          0.5458   -0.5840   -3.0326 HC        1 <0>        0.04644
     13 H3         -1.1809   -1.8791   -1.3580 HC        1 <0>        0.03494
     14 H4          0.1925   -2.6104   -2.1618 HC        1 <0>        0.03494
     15 H5         -0.1055    1.5897   -2.0851 HC        1 <0>        0.03468
     16 H6         -1.4416    0.5131   -2.4068 HC        1 <0>        0.03468
     17 H7          0.2160   -3.2919    0.1347 HC        1 <0>        0.04601
     18 H8          1.6312   -2.2979   -0.2120 HC        1 <0>        0.04601
     19 H9         -1.7656    1.7786   -0.3486 HC        1 <0>        0.04193
     20 H10        -1.8233    0.0561   -0.1010 HC        1 <0>        0.04193
     21 H11        -0.8942   -1.3415    1.2434 H1        1 <0>        0.03776
     22 H12         0.6241   -1.8053    1.9980 H1        1 <0>        0.03776
     23 H13         1.5327    2.3296    1.3566 HC        1 <0>        0.04258
     24 H14         0.2093    3.1401    0.4968 HC        1 <0>        0.04258
     25 H15         1.3362    2.0962   -0.3912 HC        1 <0>        0.04258
     26 H16        -0.0739    1.3657    2.9420 HC        1 <0>        0.04258
     27 H17        -1.4573    0.4143    2.3688 HC        1 <0>        0.04258
     28 H18        -1.4100    2.1662    2.0924 HC        1 <0>        0.04258
@<TRIPOS>BOND
     1    1    2 1
     2    1    3 1
     3    2    4 1
     4    3    5 1
     5    4    6 1
     6    5    7 1
     7    6   10 1
     8    7    8 1
     9    7    9 1
    10    7   10 1
    11    1   11 1
    12    1   12 1
    13    2   13 1
    14    2   14 1
    15    3   15 1
    16    3   16 1
    17    4   17 1
    18    4   18 1
    19    5   19 1
    20    5   20 1
    21    6   21 1
    22    6   22 1
    23    8   23 1
    24    8   24 1
    25    8   25 1
    26    9   26 1
    27    9   27 1
    28    9   28 1
@<TRIPOS>SUBSTRUCTURE
     1 <0>         1 GROUP 0 A     ****
