@<TRIPOS>MOLECULE
AlkEthOH_c1225
   24    23     1     0     0
SMALL
USER_CHARGES

@<TRIPOS>ATOM
      1 C1         -0.5888    5.8793    2.6930 CT        1 <0>       -0.09615
      2 C2          0.2807    0.8790   -0.7444 CT        1 <0>       -0.09062
      3 C3         -0.4068    3.2163   -1.3080 CT        1 <0>       -0.09062
      4 C4         -0.0192    1.6440    2.2492 CT        1 <0>       -0.12088
      5 C5          0.1974    4.6348    2.3397 CT        1 <0>        0.12968
      6 C6         -0.4527    2.1211   -0.2344 CT        1 <0>       -0.06413
      7 C7          0.1204    2.6388    1.1017 CT        1 <0>        0.14359
      8 O1         -0.5788    3.8302    1.4669 OS        1 <0>       -0.42336
      9 H1         -0.8220    6.4611    1.7969 HC        1 <0>        0.04407
     10 H2         -1.5247    5.6147    3.1962 HC        1 <0>        0.04407
     11 H3         -0.0221    6.5099    3.3861 HC        1 <0>        0.04407
     12 H4          1.3438    1.0859   -0.9074 HC        1 <0>        0.03606
     13 H5          0.1973    0.0480   -0.0376 HC        1 <0>        0.03606
     14 H6         -0.1462    0.5370   -1.6936 HC        1 <0>        0.03606
     15 H7          0.6219    3.5300   -1.5136 HC        1 <0>        0.03606
     16 H8         -0.9595    4.1039   -0.9810 HC        1 <0>        0.03606
     17 H9         -0.8508    2.8684   -2.2469 HC        1 <0>        0.03606
     18 H10        -1.0600    1.3510    2.4113 HC        1 <0>        0.04188
     19 H11         0.5584    0.7363    2.0424 HC        1 <0>        0.04188
     20 H12         0.3791    2.0634    3.1795 HC        1 <0>        0.04188
     21 H13         0.4273    4.0576    3.2402 H1        1 <0>        0.02185
     22 H14         1.1317    4.9009    1.8363 H1        1 <0>        0.02185
     23 H15        -1.5100    1.8637   -0.0871 HC        1 <0>        0.05981
     24 H16         1.1771    2.9031    0.9762 H1        1 <0>        0.03477
@<TRIPOS>BOND
     1    1    5 1
     2    2    6 1
     3    3    6 1
     4    4    7 1
     5    5    8 1
     6    6    7 1
     7    7    8 1
     8    1    9 1
     9    1   10 1
    10    1   11 1
    11    2   12 1
    12    2   13 1
    13    2   14 1
    14    3   15 1
    15    3   16 1
    16    3   17 1
    17    4   18 1
    18    4   19 1
    19    4   20 1
    20    5   21 1
    21    5   22 1
    22    6   23 1
    23    7   24 1
@<TRIPOS>SUBSTRUCTURE
     1 <0>         1 GROUP 0 A     ****
