@<TRIPOS>MOLECULE
AlkEthOH_r784
   28    28     1     0     0
SMALL
USER_CHARGES

@<TRIPOS>ATOM
      1 C1         -1.8154    0.7228   -0.3711 CT        1 <0>       -0.11004
      2 C2         -1.1915   -0.5076   -1.0293 CT        1 <0>       -0.06945
      3 C3          0.6667   -0.4551    0.7949 CT        1 <0>       -0.09832
      4 C4         -0.9023    1.9431   -0.4446 CT        1 <0>        0.13308
      5 C5          1.1534    0.8682    0.1924 CT        1 <0>        0.14326
      6 C6         -0.2169   -1.3192   -0.1420 CT        1 <0>       -0.05016
      7 C7          2.4425    1.3152    0.8786 CT        1 <0>       -0.09335
      8 C8         -1.0197   -2.3056    0.7339 CT        1 <0>       -0.08824
      9 C9          0.6905   -2.1548   -1.0713 CT        1 <0>       -0.08824
     10 O1          0.1926    1.8930    0.4585 OS        1 <0>       -0.42228
     11 H1         -2.7378    0.9632   -0.9139 HC        1 <0>        0.05130
     12 H2         -2.0945    0.5099    0.6662 HC        1 <0>        0.05130
     13 H3         -2.0039   -1.1697   -1.3585 HC        1 <0>        0.03941
     14 H4         -0.6889   -0.1932   -1.9539 HC        1 <0>        0.03941
     15 H5          1.5266   -1.0616    1.1096 HC        1 <0>        0.05204
     16 H6          0.1057   -0.2290    1.7124 HC        1 <0>        0.05204
     17 H7         -0.5347    2.1152   -1.4630 H1        1 <0>        0.04251
     18 H8         -1.4867    2.8280   -0.1691 H1        1 <0>        0.04251
     19 H9          1.3499    0.7926   -0.8834 H1        1 <0>        0.03887
     20 H10         2.2793    1.3998    1.9518 HC        1 <0>        0.04325
     21 H11         2.7523    2.2829    0.4876 HC        1 <0>        0.04325
     22 H12         3.2306    0.5869    0.6940 HC        1 <0>        0.04325
     23 H13        -0.3310   -2.8692    1.3513 HC        1 <0>        0.03410
     24 H14        -1.5739   -2.9775    0.0900 HC        1 <0>        0.03410
     25 H15        -1.7033   -1.7448    1.3595 HC        1 <0>        0.03410
     26 H16         1.3800   -2.7300   -0.4657 HC        1 <0>        0.03410
     27 H17         1.2395   -1.4854   -1.7221 HC        1 <0>        0.03410
     28 H18         0.0723   -2.8203   -1.6614 HC        1 <0>        0.03410
@<TRIPOS>BOND
     1    1    2 1
     2    1    4 1
     3    2    6 1
     4    3    5 1
     5    3    6 1
     6    4   10 1
     7    5    7 1
     8    5   10 1
     9    6    8 1
    10    6    9 1
    11    1   11 1
    12    1   12 1
    13    2   13 1
    14    2   14 1
    15    3   15 1
    16    3   16 1
    17    4   17 1
    18    4   18 1
    19    5   19 1
    20    7   20 1
    21    7   21 1
    22    7   22 1
    23    8   23 1
    24    8   24 1
    25    8   25 1
    26    9   26 1
    27    9   27 1
    28    9   28 1
@<TRIPOS>SUBSTRUCTURE
     1 <0>         1 GROUP 0 A     ****
