@<TRIPOS>MOLECULE
AlkEthOH_c794
   23    22     1     0     0
SMALL
USER_CHARGES

@<TRIPOS>ATOM
      1 C1         -2.6046    0.4192    1.1779 CT        1 <0>       -0.13259
      2 C2          2.4288   -2.7907    5.5118 CT        1 <0>       -0.13252
      3 C3         -0.8331   -0.7088    2.5635 CT        1 <0>        0.13415
      4 C4          0.7670   -1.7351    3.9452 CT        1 <0>        0.13415
      5 C5         -2.0995    0.1377    2.5848 CT        1 <0>        0.13939
      6 C6          1.1397   -1.9910    5.3999 CT        1 <0>        0.13939
      7 O1         -3.1048   -0.5777    3.3013 OH        1 <0>       -0.58563
      8 O2          1.3209   -0.7311    6.0445 OH        1 <0>       -0.58563
      9 O3         -0.4246   -0.9632    3.9033 OS        1 <0>       -0.39323
     10 H1         -2.7858   -0.5180    0.6407 HC        1 <0>        0.04350
     11 H2         -3.5359    0.9935    1.1972 HC        1 <0>        0.04350
     12 H3         -1.8600    0.9751    0.5975 HC        1 <0>        0.04350
     13 H4          3.2465   -2.2740    4.9977 HC        1 <0>        0.04350
     14 H5          2.7153   -2.9389    6.5575 HC        1 <0>        0.04350
     15 H6          2.3258   -3.7704    5.0325 HC        1 <0>        0.04350
     16 H7         -1.0095   -1.6738    2.0770 H1        1 <0>        0.03287
     17 H8         -0.0181   -0.1858    2.0534 H1        1 <0>        0.03287
     18 H9          1.5507   -1.1715    3.4284 H1        1 <0>        0.03287
     19 H10         0.5820   -2.6743    3.4146 H1        1 <0>        0.03287
     20 H11        -1.9183    1.0751    3.1222 H1        1 <0>        0.04855
     21 H12         0.3218   -2.5078    5.9141 H1        1 <0>        0.04855
     22 H13        -3.8887   -0.0078    3.3173 HO        1 <0>        0.39647
     23 H14         1.5349   -0.9244    6.9699 HO        1 <0>        0.39647
@<TRIPOS>BOND
     1    1    5 1
     2    2    6 1
     3    3    5 1
     4    3    9 1
     5    4    6 1
     6    4    9 1
     7    5    7 1
     8    6    8 1
     9    1   10 1
    10    1   11 1
    11    1   12 1
    12    2   13 1
    13    2   14 1
    14    2   15 1
    15    3   16 1
    16    3   17 1
    17    4   18 1
    18    4   19 1
    19    5   20 1
    20    6   21 1
    21    7   22 1
    22    8   23 1
@<TRIPOS>SUBSTRUCTURE
     1 <0>         1 GROUP 0 A     ****
