@<TRIPOS>MOLECULE
AlkEthOH_r427
   27    27     1     0     0
SMALL
USER_CHARGES

@<TRIPOS>ATOM
      1 C1          2.0105    0.3136   -0.7519 CT        1 <0>       -0.06217
      2 C2          1.9139   -1.1987   -0.6008 CT        1 <0>       -0.10786
      3 C3          1.2791    1.0644    0.3607 CT        1 <0>       -0.10090
      4 C4          0.6052   -1.8136   -1.0847 CT        1 <0>        0.15713
      5 C5         -0.2638    1.0357    0.3105 CT        1 <0>        0.15612
      6 C6         -0.8461   -0.4100    0.2874 CT        1 <0>        0.36439
      7 C7         -0.7537    1.8952   -0.8697 CT        1 <0>       -0.11966
      8 C8         -2.3778   -0.4330    0.4098 CT        1 <0>       -0.11547
      9 O1         -0.5545   -1.0036   -0.9833 OS        1 <0>       -0.46138
     10 O2         -0.6871    1.6909    1.5181 OH        1 <0>       -0.59560
     11 O3         -0.3259   -1.1407    1.4039 OH        1 <0>       -0.60385
     12 H1          3.0716    0.5869   -0.6879 HC        1 <0>        0.04356
     13 H2          1.6722    0.6305   -1.7439 HC        1 <0>        0.04356
     14 H3          2.7353   -1.6734   -1.1524 HC        1 <0>        0.05062
     15 H4          2.0801   -1.4705    0.4488 HC        1 <0>        0.05062
     16 H5          1.6219    0.6930    1.3365 HC        1 <0>        0.05001
     17 H6          1.6102    2.1124    0.3440 HC        1 <0>        0.05001
     18 H7          0.7089   -2.0555   -2.1487 H1        1 <0>        0.03985
     19 H8          0.4238   -2.7675   -0.5755 H1        1 <0>        0.03985
     20 H9         -1.8374    1.8724   -0.9014 HC        1 <0>        0.04714
     21 H10        -0.3514    1.4943   -1.7936 HC        1 <0>        0.04714
     22 H11        -0.4122    2.9155   -0.7332 HC        1 <0>        0.04714
     23 H12        -2.7249   -1.4613    0.3879 HC        1 <0>        0.05674
     24 H13        -2.8130    0.1158   -0.4196 HC        1 <0>        0.05674
     25 H14        -2.6707    0.0304    1.3468 HC        1 <0>        0.05674
     26 H15        -0.3212    2.5843    1.4756 HO        1 <0>        0.40024
     27 H16        -0.7118   -2.0266    1.3493 HO        1 <0>        0.40929
@<TRIPOS>BOND
     1    1    2 1
     2    1    3 1
     3    2    4 1
     4    3    5 1
     5    4    9 1
     6    5    6 1
     7    5    7 1
     8    5   10 1
     9    6    8 1
    10    6    9 1
    11    6   11 1
    12    1   12 1
    13    1   13 1
    14    2   14 1
    15    2   15 1
    16    3   16 1
    17    3   17 1
    18    4   18 1
    19    4   19 1
    20    7   20 1
    21    7   21 1
    22    7   22 1
    23    8   23 1
    24    8   24 1
    25    8   25 1
    26   10   26 1
    27   11   27 1
@<TRIPOS>SUBSTRUCTURE
     1 <0>         1 GROUP 0 A     ****
