@<TRIPOS>MOLECULE
AlkEthOH_r603
   20    20     1     0     0
SMALL
USER_CHARGES

@<TRIPOS>ATOM
      1 C1          0.1502   -1.3886    0.6979 CT        1 <0>        0.12054
      2 C2          0.2160    0.1519    0.7676 CT        1 <0>       -0.07967
      3 C3         -0.2387    0.0570   -0.7313 CT        1 <0>        0.32489
      4 C4          1.6302    0.6681    1.0342 CT        1 <0>       -0.08414
      5 C5         -0.7865    0.7776    1.7325 CT        1 <0>       -0.08414
      6 C6          0.5516    0.8187   -1.7837 CT        1 <0>       -0.11105
      7 O1          0.1270   -1.3548   -0.7519 OS        1 <0>       -0.45472
      8 O2         -1.6497    0.2703   -0.9653 OH        1 <0>       -0.60236
      9 H1          1.0237   -1.9277    1.0762 H1        1 <0>        0.05914
     10 H2         -0.7587   -1.8570    1.0905 H1        1 <0>        0.05914
     11 H3          1.6231    1.7555    1.0741 HC        1 <0>        0.04527
     12 H4          2.2962    0.3435    0.2372 HC        1 <0>        0.04527
     13 H5          1.9911    0.2774    1.9837 HC        1 <0>        0.04527
     14 H6         -0.6799    1.8616    1.7266 HC        1 <0>        0.04527
     15 H7         -0.6093    0.4086    2.7420 HC        1 <0>        0.04527
     16 H8         -1.8012    0.5186    1.4323 HC        1 <0>        0.04527
     17 H9          0.1171    0.6554   -2.7711 HC        1 <0>        0.05365
     18 H10         1.5879    0.4777   -1.7951 HC        1 <0>        0.05365
     19 H11         0.5356    1.8875   -1.5650 HC        1 <0>        0.05365
     20 H12        -1.7669    0.1807   -1.9180 HO        1 <0>        0.41980
@<TRIPOS>BOND
     1    1    2 1
     2    1    7 1
     3    2    3 1
     4    2    4 1
     5    2    5 1
     6    3    6 1
     7    3    7 1
     8    3    8 1
     9    1    9 1
    10    1   10 1
    11    4   11 1
    12    4   12 1
    13    4   13 1
    14    5   14 1
    15    5   15 1
    16    5   16 1
    17    6   17 1
    18    6   18 1
    19    6   19 1
    20    8   20 1
@<TRIPOS>SUBSTRUCTURE
     1 <0>         1 GROUP 0 A     ****
