@<TRIPOS>MOLECULE
AlkEthOH_r658
   29    29     1     0     0
SMALL
USER_CHARGES

@<TRIPOS>ATOM
      1 C1          1.5939    0.7403   -1.6619 CT        1 <0>        0.09618
      2 C2          1.2050   -0.7148   -1.4815 CT        1 <0>        0.10110
      3 C3          0.1728    1.6320    0.0488 CT        1 <0>        0.13403
      4 C4         -0.8049    0.4840    0.4132 CT        1 <0>       -0.09535
      5 C5         -0.0277   -0.8905    0.6413 CT        1 <0>        0.16784
      6 C6         -1.8969    0.3930   -0.6872 CT        1 <0>       -0.08581
      7 C7         -1.5676    0.9141    1.6959 CT        1 <0>       -0.08581
      8 C8          0.4851   -1.0250    2.0965 CT        1 <0>       -0.10127
      9 C9         -0.8926   -2.1352    0.3669 CT        1 <0>       -0.10127
     10 O1          0.5365    1.6286   -1.3301 OS        1 <0>       -0.41481
     11 O2          1.1965   -1.0266   -0.1019 OS        1 <0>       -0.43253
     12 H1          2.4785    0.9958   -1.0671 H1        1 <0>        0.05457
     13 H2          1.8366    0.9195   -2.7142 H1        1 <0>        0.05457
     14 H3          0.2653   -0.9760   -1.9699 H1        1 <0>        0.05524
     15 H4          1.9852   -1.3366   -1.9334 H1        1 <0>        0.05524
     16 H5         -0.3242    2.5958    0.2133 H1        1 <0>        0.05214
     17 H6          1.0644    1.6368    0.6875 H1        1 <0>        0.05214
     18 H7         -2.5765   -0.4069   -0.4314 HC        1 <0>        0.03871
     19 H8         -1.4155    0.1898   -1.6328 HC        1 <0>        0.03871
     20 H9         -2.4233    1.3356   -0.7275 HC        1 <0>        0.03871
     21 H10        -2.2553    0.1263    1.9669 HC        1 <0>        0.03871
     22 H11        -2.1053    1.8272    1.4856 HC        1 <0>        0.03871
     23 H12        -0.8481    1.0741    2.4857 HC        1 <0>        0.03871
     24 H13         1.0023   -1.9698    2.1971 HC        1 <0>        0.04359
     25 H14        -0.3620   -0.9900    2.7683 HC        1 <0>        0.04359
     26 H15         1.1605   -0.2059    2.3043 HC        1 <0>        0.04359
     27 H16        -0.3000   -3.0263    0.5420 HC        1 <0>        0.04359
     28 H17        -1.2287   -2.1149   -0.6639 HC        1 <0>        0.04359
     29 H18        -1.7489   -2.1275    1.0322 HC        1 <0>        0.04359
@<TRIPOS>BOND
     1    1    2 1
     2    1   10 1
     3    2   11 1
     4    3    4 1
     5    3   10 1
     6    4    5 1
     7    4    6 1
     8    4    7 1
     9    5    8 1
    10    5    9 1
    11    5   11 1
    12    1   12 1
    13    1   13 1
    14    2   14 1
    15    2   15 1
    16    3   16 1
    17    3   17 1
    18    6   18 1
    19    6   19 1
    20    6   20 1
    21    7   21 1
    22    7   22 1
    23    7   23 1
    24    8   24 1
    25    8   25 1
    26    8   26 1
    27    9   27 1
    28    9   28 1
    29    9   29 1
@<TRIPOS>SUBSTRUCTURE
     1 <0>         1 GROUP 0 A     ****
