@<TRIPOS>MOLECULE
AlkEthOH_r790
   25    25     1     0     0
SMALL
USER_CHARGES

@<TRIPOS>ATOM
      1 C1         -0.4171    0.9501   -0.3540 CT        1 <0>       -0.10410
      2 C2         -2.0984    2.0533   -1.8601 CT        1 <0>       -0.10040
      3 C3         -1.0734    1.6931    0.8048 CT        1 <0>        0.13007
      4 C4         -2.6693    2.7350   -0.6111 CT        1 <0>        0.13824
      5 C5         -1.3889    0.7212   -1.5307 CT        1 <0>       -0.05154
      6 C6         -3.2399    4.1058   -0.9527 CT        1 <0>       -0.09084
      7 C7         -0.5973    0.2456   -2.7621 CT        1 <0>       -0.08748
      8 C8         -2.4185   -0.3696   -1.1783 CT        1 <0>       -0.08748
      9 O1         -1.6386    2.9251    0.3620 OS        1 <0>       -0.41508
     10 H1          0.4265    1.5579   -0.7080 HC        1 <0>        0.05051
     11 H2          0.0000   -0.0001    0.0002 HC        1 <0>        0.05051
     12 H3         -2.8922    1.8943   -2.6005 HC        1 <0>        0.05035
     13 H4         -1.3655    2.7307   -2.3202 HC        1 <0>        0.05035
     14 H5         -1.8449    1.0898    1.2956 H1        1 <0>        0.04508
     15 H6         -0.3192    1.9298    1.5624 H1        1 <0>        0.04508
     16 H7         -3.4702    2.1325   -0.1670 H1        1 <0>        0.03347
     17 H8         -2.4660    4.7314   -1.3977 HC        1 <0>        0.04432
     18 H9         -3.6109    4.5907   -0.0498 HC        1 <0>        0.04432
     19 H10        -4.0615    4.0015   -1.6615 HC        1 <0>        0.04432
     20 H11        -1.2828    0.0856   -3.5875 HC        1 <0>        0.03505
     21 H12        -0.0891   -0.6825   -2.5234 HC        1 <0>        0.03505
     22 H13         0.1310    1.0027   -3.0328 HC        1 <0>        0.03505
     23 H14        -3.0882   -0.5114   -2.0192 HC        1 <0>        0.03505
     24 H15        -2.9837   -0.0569   -0.3075 HC        1 <0>        0.03505
     25 H16        -1.8964   -1.2955   -0.9644 HC        1 <0>        0.03505
@<TRIPOS>BOND
     1    1    3 1
     2    1    5 1
     3    2    4 1
     4    2    5 1
     5    3    9 1
     6    4    6 1
     7    4    9 1
     8    5    7 1
     9    5    8 1
    10    1   10 1
    11    1   11 1
    12    2   12 1
    13    2   13 1
    14    3   14 1
    15    3   15 1
    16    4   16 1
    17    6   17 1
    18    6   18 1
    19    6   19 1
    20    7   20 1
    21    7   21 1
    22    7   22 1
    23    8   23 1
    24    8   24 1
    25    8   25 1
@<TRIPOS>SUBSTRUCTURE
     1 <0>         1 GROUP 0 A     ****
