@<TRIPOS>MOLECULE
AlkEthOH_r794
   26    26     1     0     0
SMALL
USER_CHARGES

@<TRIPOS>ATOM
      1 C1          0.0703   -1.6750    0.2553 CT        1 <0>       -0.09651
      2 C2          0.1762    0.7569    1.0252 CT        1 <0>       -0.10112
      3 C3          0.1354   -1.6383   -1.2717 CT        1 <0>        0.14238
      4 C4          1.1554    0.5241   -1.3335 CT        1 <0>        0.13404
      5 C5          0.5165    1.4573   -0.3033 CT        1 <0>       -0.09071
      6 C6         -0.6858   -0.5207    0.9356 CT        1 <0>        0.16032
      7 C7          1.4403    2.6474   -0.0304 CT        1 <0>       -0.09194
      8 C8         -1.0792   -0.9515    2.3573 CT        1 <0>       -0.12716
      9 O1          0.1616   -0.3467   -1.8553 OS        1 <0>       -0.40570
     10 O2         -1.8907   -0.2535    0.2209 OH        1 <0>       -0.58165
     11 H1         -0.3866   -2.6367    0.5254 HC        1 <0>        0.04933
     12 H2          1.0911   -1.7195    0.6576 HC        1 <0>        0.04933
     13 H3          1.1061    0.5245    1.5622 HC        1 <0>        0.04283
     14 H4         -0.3571    1.4922    1.6444 HC        1 <0>        0.04283
     15 H5          1.0021   -2.2096   -1.6251 H1        1 <0>        0.04550
     16 H6         -0.7502   -2.1407   -1.6771 H1        1 <0>        0.04550
     17 H7          1.5196    1.1145   -2.1819 H1        1 <0>        0.04254
     18 H8          2.0158   -0.0248   -0.9319 H1        1 <0>        0.04254
     19 H9         -0.4207    1.8459   -0.7237 HC        1 <0>        0.06965
     20 H10         2.3794    2.2925    0.3877 HC        1 <0>        0.03485
     21 H11         0.9652    3.3241    0.6760 HC        1 <0>        0.03485
     22 H12         1.6375    3.1773   -0.9593 HC        1 <0>        0.03485
     23 H13        -1.6136   -0.1413    2.8437 HC        1 <0>        0.04192
     24 H14        -0.1829   -1.1875    2.9225 HC        1 <0>        0.04192
     25 H15        -1.7174   -1.8282    2.3038 HC        1 <0>        0.04192
     26 H16        -2.3295    0.4763    0.6843 HO        1 <0>        0.39769
@<TRIPOS>BOND
     1    1    3 1
     2    1    6 1
     3    2    5 1
     4    2    6 1
     5    3    9 1
     6    4    5 1
     7    4    9 1
     8    5    7 1
     9    6    8 1
    10    6   10 1
    11    1   11 1
    12    1   12 1
    13    2   13 1
    14    2   14 1
    15    3   15 1
    16    3   16 1
    17    4   17 1
    18    4   18 1
    19    5   19 1
    20    7   20 1
    21    7   21 1
    22    7   22 1
    23    8   23 1
    24    8   24 1
    25    8   25 1
    26   10   26 1
@<TRIPOS>SUBSTRUCTURE
     1 <0>         1 GROUP 0 A     ****
