@<TRIPOS>MOLECULE
AlkEthOH_r26
   19    19     1     0     0
SMALL
USER_CHARGES

@<TRIPOS>ATOM
      1 C1         -1.3583    0.2576   -1.4990 CT        1 <0>       -0.10720
      2 C2          0.1402    0.4904   -1.6958 CT        1 <0>       -0.13650
      3 C3         -1.8667    0.5735   -0.0969 CT        1 <0>        0.14489
      4 C4          1.0254   -0.1650   -0.6367 CT        1 <0>        0.34467
      5 C5         -0.1512   -0.0590    1.4422 CT        1 <0>        0.53976
      6 O1         -1.3882   -0.4067    0.8174 OS        1 <0>       -0.49073
      7 O2          0.8430    0.5226    0.5963 OS        1 <0>       -0.50245
      8 O3          2.3785   -0.0254   -1.0671 OH        1 <0>       -0.58102
      9 O4          0.3773   -1.1881    2.1396 OH        1 <0>       -0.60141
     10 H1         -1.9045    0.8681   -2.2274 HC        1 <0>        0.05847
     11 H2         -1.5747   -0.7933   -1.7282 HC        1 <0>        0.05847
     12 H3          0.4281    0.1335   -2.6925 HC        1 <0>        0.06196
     13 H4          0.3274    1.5726   -1.6968 HC        1 <0>        0.06196
     14 H5         -1.6081    1.5895    0.2238 H1        1 <0>        0.05390
     15 H6         -2.9593    0.4984   -0.0966 H1        1 <0>        0.05390
     16 H7          0.8121   -1.2372   -0.5465 H2        1 <0>        0.08545
     17 H8         -0.3812    0.6995    2.1994 H3        1 <0>        0.11253
     18 H9          2.4428   -0.4772   -1.9223 HO        1 <0>        0.41301
     19 H10        -0.2852   -1.4342    2.8023 HO        1 <0>        0.43034
@<TRIPOS>BOND
     1    1    2 1
     2    1    3 1
     3    2    4 1
     4    3    6 1
     5    4    7 1
     6    4    8 1
     7    5    6 1
     8    5    7 1
     9    5    9 1
    10    1   10 1
    11    1   11 1
    12    2   12 1
    13    2   13 1
    14    3   14 1
    15    3   15 1
    16    4   16 1
    17    5   17 1
    18    8   18 1
    19    9   19 1
@<TRIPOS>SUBSTRUCTURE
     1 <0>         1 GROUP 0 A     ****
