@<TRIPOS>MOLECULE
AlkEthOH_r380
   31    31     1     0     0
SMALL
USER_CHARGES

@<TRIPOS>ATOM
      1 C1          0.2653    0.7704    2.4334 CT        1 <0>       -0.06868
      2 C2         -1.0150    0.6777    1.6058 CT        1 <0>       -0.08252
      3 C3          1.5776    0.3115    1.7996 CT        1 <0>       -0.07174
      4 C4         -1.1038    1.6036    0.3904 CT        1 <0>       -0.06282
      5 C5          1.5980   -1.1278    1.2722 CT        1 <0>       -0.09630
      6 C6         -0.3196    1.2328   -0.8776 CT        1 <0>       -0.09567
      7 C7          1.3532   -1.2304   -0.2323 CT        1 <0>        0.13450
      8 C8         -0.5080   -0.1986   -1.4334 CT        1 <0>        0.15763
      9 C9          0.1913   -0.3409   -2.7980 CT        1 <0>       -0.10358
     10 C10        -1.9997   -0.5077   -1.6477 CT        1 <0>       -0.10358
     11 O1         -0.0393   -1.1908   -0.5125 OS        1 <0>       -0.42444
     12 H1          0.3924    1.8073    2.7701 HC        1 <0>        0.03250
     13 H2          0.1102    0.1807    3.3469 HC        1 <0>        0.03250
     14 H3         -1.2376   -0.3602    1.3491 HC        1 <0>        0.05044
     15 H4         -1.8331    0.9728    2.2783 HC        1 <0>        0.05044
     16 H5          1.9081    1.0207    1.0355 HC        1 <0>        0.03423
     17 H6          2.3372    0.3772    2.5910 HC        1 <0>        0.03423
     18 H7         -2.1633    1.6843    0.1143 HC        1 <0>        0.03380
     19 H8         -0.8083    2.6167    0.6924 HC        1 <0>        0.03380
     20 H9          2.6010   -1.5303    1.4633 HC        1 <0>        0.05002
     21 H10         0.8878   -1.7509    1.8272 HC        1 <0>        0.05002
     22 H11        -0.6165    1.9491   -1.6564 HC        1 <0>        0.04111
     23 H12         0.7410    1.4309   -0.7023 HC        1 <0>        0.04111
     24 H13         1.9323   -0.4726   -0.7673 H1        1 <0>        0.03717
     25 H14         1.7087   -2.2075   -0.5777 H1        1 <0>        0.03717
     26 H15         0.0471   -1.3497   -3.1689 HC        1 <0>        0.04311
     27 H16         1.2507   -0.1424   -2.6779 HC        1 <0>        0.04311
     28 H17        -0.2384    0.3708   -3.4945 HC        1 <0>        0.04311
     29 H18        -2.1043   -1.5151   -2.0371 HC        1 <0>        0.04311
     30 H19        -2.4142    0.2024   -2.3558 HC        1 <0>        0.04311
     31 H20        -2.5220   -0.4262   -0.7001 HC        1 <0>        0.04311
@<TRIPOS>BOND
     1    1    2 1
     2    1    3 1
     3    2    4 1
     4    3    5 1
     5    4    6 1
     6    5    7 1
     7    6    8 1
     8    7   11 1
     9    8    9 1
    10    8   10 1
    11    8   11 1
    12    1   12 1
    13    1   13 1
    14    2   14 1
    15    2   15 1
    16    3   16 1
    17    3   17 1
    18    4   18 1
    19    4   19 1
    20    5   20 1
    21    5   21 1
    22    6   22 1
    23    6   23 1
    24    7   24 1
    25    7   25 1
    26    9   26 1
    27    9   27 1
    28    9   28 1
    29   10   29 1
    30   10   30 1
    31   10   31 1
@<TRIPOS>SUBSTRUCTURE
     1 <0>         1 GROUP 0 A     ****
