@<TRIPOS>MOLECULE
AlkEthOH_c766
   22    21     1     0     0
SMALL
USER_CHARGES

@<TRIPOS>ATOM
      1 C1         -0.8270   -1.7650   -0.4868 CT        1 <0>       -0.08396
      2 C2          1.4387    1.4318   -0.1546 CT        1 <0>       -0.12376
      3 C3         -0.9876    1.3194   -0.7756 CT        1 <0>       -0.12376
      4 C4         -0.0948   -0.5750    1.6103 CT        1 <0>        0.13377
      5 C5          0.2034   -0.7931    0.1181 CT        1 <0>       -0.05352
      6 C6          0.3231    0.5287   -0.6979 CT        1 <0>        0.15415
      7 O1          0.0055   -1.8114    2.3098 OH        1 <0>       -0.60069
      8 O2          0.6974    0.1731   -2.0373 OH        1 <0>       -0.59861
      9 H1         -1.8370   -1.3441   -0.4658 HC        1 <0>        0.04267
     10 H2         -0.8423   -2.7195    0.0487 HC        1 <0>        0.04267
     11 H3         -0.5922   -1.9793   -1.5351 HC        1 <0>        0.04267
     12 H4          2.3857    0.8841   -0.0913 HC        1 <0>        0.04264
     13 H5          1.6186    2.2780   -0.8283 HC        1 <0>        0.04264
     14 H6          1.2014    1.8366    0.8335 HC        1 <0>        0.04264
     15 H7         -1.8124    0.7119   -1.1591 HC        1 <0>        0.04264
     16 H8         -1.2753    1.6887    0.2162 HC        1 <0>        0.04264
     17 H9         -0.8818    2.2090   -1.4047 HC        1 <0>        0.04264
     18 H10         0.6237    0.1123    2.0642 H1        1 <0>        0.02176
     19 H11        -1.1045   -0.1808    1.7616 H1        1 <0>        0.02176
     20 H12         1.1666   -1.3185    0.0426 HC        1 <0>        0.07371
     21 H13        -0.1904   -1.6201    3.2404 HO        1 <0>        0.39842
     22 H14         0.7679    1.0058   -2.5237 HO        1 <0>        0.39688
@<TRIPOS>BOND
     1    1    5 1
     2    2    6 1
     3    3    6 1
     4    4    5 1
     5    4    7 1
     6    5    6 1
     7    6    8 1
     8    1    9 1
     9    1   10 1
    10    1   11 1
    11    2   12 1
    12    2   13 1
    13    2   14 1
    14    3   15 1
    15    3   16 1
    16    3   17 1
    17    4   18 1
    18    4   19 1
    19    5   20 1
    20    7   21 1
    21    8   22 1
@<TRIPOS>SUBSTRUCTURE
     1 <0>         1 GROUP 0 A     ****
