@<TRIPOS>MOLECULE
AlkEthOH_r75
   22    22     1     0     0
SMALL
USER_CHARGES

@<TRIPOS>ATOM
      1 C1         -1.4742    0.2058   -1.7943 CT        1 <0>       -0.10384
      2 C2         -1.2514   -1.2224   -1.2950 CT        1 <0>       -0.10374
      3 C3         -0.8262    1.3109   -0.9641 CT        1 <0>        0.13019
      4 C4          0.2136   -1.6428   -1.1603 CT        1 <0>        0.13019
      5 C5          0.0718    0.8033    1.2197 CT        1 <0>        0.31144
      6 C6          0.5566   -0.6344    0.9861 CT        1 <0>        0.31144
      7 O1         -1.0743    1.1325    0.4285 OS        1 <0>       -0.44895
      8 O2          1.0081   -0.7750   -0.3579 OS        1 <0>       -0.44895
      9 O3          1.1505    1.7214    1.0441 OH        1 <0>       -0.60712
     10 O4          1.6254   -0.8992    1.8932 OH        1 <0>       -0.60712
     11 H1         -1.1363    0.2946   -2.8335 HC        1 <0>        0.04984
     12 H2         -2.5584    0.3771   -1.8045 HC        1 <0>        0.04984
     13 H3         -1.7684   -1.3409   -0.3362 HC        1 <0>        0.04984
     14 H4         -1.7469   -1.9150   -1.9866 HC        1 <0>        0.04984
     15 H5          0.2403    1.4011   -1.1965 H1        1 <0>        0.05621
     16 H6         -1.2777    2.2679   -1.2494 H1        1 <0>        0.05621
     17 H7          0.2791   -2.6595   -0.7555 H1        1 <0>        0.05621
     18 H8          0.6740   -1.6654   -2.1540 H1        1 <0>        0.05621
     19 H9         -0.2356    0.8836    2.2689 H2        1 <0>        0.08119
     20 H10        -0.2497   -1.3392    1.2185 H2        1 <0>        0.08119
     21 H11         0.7866    2.6054    1.2032 HO        1 <0>        0.42494
     22 H12         1.9104   -1.8101    1.7237 HO        1 <0>        0.42494
@<TRIPOS>BOND
     1    1    2 1
     2    1    3 1
     3    2    4 1
     4    3    7 1
     5    4    8 1
     6    5    6 1
     7    5    7 1
     8    5    9 1
     9    6    8 1
    10    6   10 1
    11    1   11 1
    12    1   12 1
    13    2   13 1
    14    2   14 1
    15    3   15 1
    16    3   16 1
    17    4   17 1
    18    4   18 1
    19    5   19 1
    20    6   20 1
    21    9   21 1
    22   10   22 1
@<TRIPOS>SUBSTRUCTURE
     1 <0>         1 GROUP 0 A     ****
