@<TRIPOS>MOLECULE
AlkEthOH_c1236
   22    21     1     0     0
SMALL
USER_CHARGES

@<TRIPOS>ATOM
      1 C1         -0.5516    3.9198    3.5888 CT        1 <0>       -0.09566
      2 C2         -0.4238    0.8108    0.6004 CT        1 <0>       -0.12417
      3 C3         -1.1688   -2.0556    4.4598 CT        1 <0>        0.11573
      4 C4          0.1000    2.8037    2.8007 CT        1 <0>        0.13097
      5 C5         -0.8331   -0.7088    2.5635 CT        1 <0>        0.12798
      6 C6         -0.1831    0.5832    2.0850 CT        1 <0>        0.13949
      7 O1         -0.5999   -0.8539    3.9604 OS        1 <0>       -0.41093
      8 O2         -0.7516    1.6685    2.8163 OS        1 <0>       -0.41242
      9 H1         -1.5130    4.1988    3.1485 HC        1 <0>        0.04458
     10 H2         -0.7138    3.6150    4.6279 HC        1 <0>        0.04458
     11 H3          0.0951    4.8032    3.6136 HC        1 <0>        0.04458
     12 H4         -1.4974    0.8254    0.3837 HC        1 <0>        0.04361
     13 H5          0.0100    1.7589    0.2680 HC        1 <0>        0.04361
     14 H6          0.0060   -0.0016    0.0041 HC        1 <0>        0.04361
     15 H7         -0.9716   -2.1350    5.5317 H1        1 <0>        0.03207
     16 H8         -0.7358   -2.9106    3.9345 H1        1 <0>        0.03207
     17 H9         -2.2480   -2.0351    4.2907 H1        1 <0>        0.03207
     18 H10         1.0609    2.5296    3.2463 H1        1 <0>        0.02313
     19 H11         0.2606    3.1097    1.7626 H1        1 <0>        0.02313
     20 H12        -1.9163   -0.6903    2.4039 H1        1 <0>        0.03513
     21 H13        -0.4036   -1.5777    2.0553 H1        1 <0>        0.03513
     22 H14         0.8907    0.5686    2.3018 H1        1 <0>        0.05171
@<TRIPOS>BOND
     1    1    4 1
     2    2    6 1
     3    3    7 1
     4    4    8 1
     5    5    6 1
     6    5    7 1
     7    6    8 1
     8    1    9 1
     9    1   10 1
    10    1   11 1
    11    2   12 1
    12    2   13 1
    13    2   14 1
    14    3   15 1
    15    3   16 1
    16    3   17 1
    17    4   18 1
    18    4   19 1
    19    5   20 1
    20    5   21 1
    21    6   22 1
@<TRIPOS>SUBSTRUCTURE
     1 <0>         1 GROUP 0 A     ****
