@<TRIPOS>MOLECULE
AlkEthOH_r1133
   27    27     1     0     0
SMALL
USER_CHARGES

@<TRIPOS>ATOM
      1 C1         -0.2797    0.9146   -2.2463 CT        1 <0>       -0.10043
      2 C2         -0.2736   -0.6083   -2.0865 CT        1 <0>       -0.10030
      3 C3         -0.0806    1.7238   -0.9684 CT        1 <0>        0.13618
      4 C4          1.0518   -1.1847   -1.5914 CT        1 <0>        0.13618
      5 C5         -0.6255    0.7287    1.1483 CT        1 <0>        0.33567
      6 C6          0.6494   -1.3053    0.7701 CT        1 <0>        0.33567
      7 C7         -1.6350    1.0162    2.2530 CT        1 <0>       -0.10705
      8 C8          1.4759   -1.2734    2.0525 CT        1 <0>       -0.10705
      9 O1         -1.0900    1.4280   -0.0105 OS        1 <0>       -0.44042
     10 O2          1.4306   -0.7522   -0.2884 OS        1 <0>       -0.44042
     11 O3         -0.6233   -0.6874    0.9677 OS        1 <0>       -0.46395
     12 H1          0.4851    1.2072   -2.9756 HC        1 <0>        0.05197
     13 H2         -1.2503    1.1904   -2.6783 HC        1 <0>        0.05197
     14 H3         -1.0986   -0.9127   -1.4358 HC        1 <0>        0.05197
     15 H4         -0.4860   -1.0492   -3.0687 HC        1 <0>        0.05197
     16 H5          0.9308    1.6167   -0.5645 H1        1 <0>        0.04411
     17 H6         -0.1923    2.7848   -1.2198 H1        1 <0>        0.04411
     18 H7          1.0246   -2.2803   -1.6203 H1        1 <0>        0.04411
     19 H8          1.8523   -0.8750   -2.2725 H1        1 <0>        0.04411
     20 H9          0.3467    1.1192    1.4689 H2        1 <0>        0.05884
     21 H10         0.4476   -2.3608    0.5518 H2        1 <0>        0.05884
     22 H11        -2.6173    0.6401    1.9672 HC        1 <0>        0.05232
     23 H12        -1.7036    2.0903    2.4246 HC        1 <0>        0.05232
     24 H13        -1.3246    0.5290    3.1773 HC        1 <0>        0.05232
     25 H14         1.7071   -0.2428    2.3188 HC        1 <0>        0.05232
     26 H15         2.4065   -1.8204    1.9071 HC        1 <0>        0.05232
     27 H16         0.9160   -1.7338    2.8656 HC        1 <0>        0.05232
@<TRIPOS>BOND
     1    1    2 1
     2    1    3 1
     3    2    4 1
     4    3    9 1
     5    4   10 1
     6    5    7 1
     7    5    9 1
     8    5   11 1
     9    6    8 1
    10    6   10 1
    11    6   11 1
    12    1   12 1
    13    1   13 1
    14    2   14 1
    15    2   15 1
    16    3   16 1
    17    3   17 1
    18    4   18 1
    19    4   19 1
    20    5   20 1
    21    6   21 1
    22    7   22 1
    23    7   23 1
    24    7   24 1
    25    8   25 1
    26    8   26 1
    27    8   27 1
@<TRIPOS>SUBSTRUCTURE
     1 <0>         1 GROUP 0 A     ****
