@<TRIPOS>MOLECULE
AlkEthOH_r320
   27    27     1     0     0
SMALL
USER_CHARGES

@<TRIPOS>ATOM
      1 C1          0.2039   -0.9858    0.4324 CT        1 <0>       -0.07924
      2 C2          1.7023   -1.2880    0.3830 CT        1 <0>       -0.07557
      3 C3         -0.2116   -1.0379    1.9033 CT        1 <0>       -0.07557
      4 C4          2.0721   -1.8371    1.7769 CT        1 <0>       -0.04746
      5 C5          1.0998   -1.0442    2.7168 CT        1 <0>       -0.04746
      6 C6          3.5614   -1.6060    2.0727 CT        1 <0>       -0.08256
      7 C7          1.8253   -3.3632    1.7960 CT        1 <0>       -0.08256
      8 C8          1.5456    0.4163    2.9595 CT        1 <0>       -0.08256
      9 C9          0.8820   -1.6952    4.0907 CT        1 <0>       -0.08256
     10 H1          0.0003    0.0003    0.0007 HC        1 <0>        0.03913
     11 H2         -0.3653   -1.7183   -0.1504 HC        1 <0>        0.03913
     12 H3          1.9410   -1.9869   -0.4263 HC        1 <0>        0.04166
     13 H4          2.2479   -0.3612    0.1669 HC        1 <0>        0.04166
     14 H5         -0.8681   -0.1996    2.1617 HC        1 <0>        0.04166
     15 H6         -0.7894   -1.9534    2.0801 HC        1 <0>        0.04166
     16 H7          3.7989   -1.9994    3.0566 HC        1 <0>        0.03422
     17 H8          3.7732   -0.5413    2.0463 HC        1 <0>        0.03422
     18 H9          4.1609   -2.1146    1.3236 HC        1 <0>        0.03422
     19 H10         2.0850   -3.7478    2.7740 HC        1 <0>        0.03422
     20 H11         2.4438   -3.8274    1.0384 HC        1 <0>        0.03422
     21 H12         0.7797   -3.5515    1.5885 HC        1 <0>        0.03422
     22 H13         2.4655    0.4114    3.5301 HC        1 <0>        0.03422
     23 H14         0.7698    0.9323    3.5104 HC        1 <0>        0.03422
     24 H15         1.7046    0.8974    2.0028 HC        1 <0>        0.03422
     25 H16         1.8159   -1.6889    4.6448 HC        1 <0>        0.03422
     26 H17         0.5469   -2.7192    3.9554 HC        1 <0>        0.03422
     27 H18         0.1300   -1.1362    4.6395 HC        1 <0>        0.03422
@<TRIPOS>BOND
     1    1    2 1
     2    1    3 1
     3    2    4 1
     4    3    5 1
     5    4    5 1
     6    4    6 1
     7    4    7 1
     8    5    8 1
     9    5    9 1
    10    1   10 1
    11    1   11 1
    12    2   12 1
    13    2   13 1
    14    3   14 1
    15    3   15 1
    16    6   16 1
    17    6   17 1
    18    6   18 1
    19    7   19 1
    20    7   20 1
    21    7   21 1
    22    8   22 1
    23    8   23 1
    24    8   24 1
    25    9   25 1
    26    9   26 1
    27    9   27 1
@<TRIPOS>SUBSTRUCTURE
     1 <0>         1 GROUP 0 A     ****
