@<TRIPOS>MOLECULE
AlkEthOH_r1011
   21    21     1     0     0
SMALL
USER_CHARGES

@<TRIPOS>ATOM
      1 C1         -0.9778   -1.3205    0.5017 CT        1 <0>       -0.14920
      2 C2         -0.8727   -1.2696   -1.0182 CT        1 <0>        0.12816
      3 C3          1.1340    0.0092   -1.3243 CT        1 <0>        0.07812
      4 C4         -0.8690    0.0498    1.1907 CT        1 <0>        0.15516
      5 C5          1.2271    0.5116    0.1122 CT        1 <0>        0.30478
      6 C6         -2.2442    0.6972    1.3386 CT        1 <0>       -0.09438
      7 O1          0.4930   -1.2571   -1.4290 OS        1 <0>       -0.41005
      8 O2         -0.0543    0.9932    0.4986 OS        1 <0>       -0.46151
      9 O3          2.1638    1.5861    0.1298 OH        1 <0>       -0.58904
     10 H1         -1.9170   -1.8039    0.7960 HC        1 <0>        0.05890
     11 H2         -0.1706   -1.9598    0.8824 HC        1 <0>        0.05890
     12 H3         -1.3020   -2.1912   -1.4257 H1        1 <0>        0.05493
     13 H4         -1.4257   -0.4326   -1.4589 H1        1 <0>        0.05493
     14 H5          0.6115    0.7308   -1.9648 H1        1 <0>        0.06260
     15 H6          2.1408   -0.1081   -1.7406 H1        1 <0>        0.06260
     16 H7         -0.4549   -0.0882    2.1973 H1        1 <0>        0.04261
     17 H8          1.5875   -0.2689    0.7928 H2        1 <0>        0.08665
     18 H9         -2.6878    0.8503    0.3561 HC        1 <0>        0.04672
     19 H10        -2.1476    1.6589    1.8398 HC        1 <0>        0.04672
     20 H11        -2.8947    0.0520    1.9270 HC        1 <0>        0.04672
     21 H12         1.8154    2.2655   -0.4679 HO        1 <0>        0.41568
@<TRIPOS>BOND
     1    1    2 1
     2    1    4 1
     3    2    7 1
     4    3    5 1
     5    3    7 1
     6    4    6 1
     7    4    8 1
     8    5    8 1
     9    5    9 1
    10    1   10 1
    11    1   11 1
    12    2   12 1
    13    2   13 1
    14    3   14 1
    15    3   15 1
    16    4   16 1
    17    5   17 1
    18    6   18 1
    19    6   19 1
    20    6   20 1
    21    9   21 1
@<TRIPOS>SUBSTRUCTURE
     1 <0>         1 GROUP 0 A     ****
