@<TRIPOS>MOLECULE
AlkEthOH_c1047
   27    26     1     0     0
SMALL
USER_CHARGES

@<TRIPOS>ATOM
      1 C1          1.4477   -1.9155    1.0786 CT        1 <0>       -0.09335
      2 C2         -1.7351   -1.4439   -4.5731 CT        1 <0>       -0.09573
      3 C3         -0.2913   -4.8812   -1.5864 CT        1 <0>       -0.10199
      4 C4          1.3843   -3.8070   -3.1121 CT        1 <0>       -0.10199
      5 C5          1.1662   -3.0326    0.0842 CT        1 <0>       -0.07622
      6 C6          0.4071   -2.5093   -1.1412 CT        1 <0>       -0.10325
      7 C7         -0.5745   -1.8850   -3.7069 CT        1 <0>        0.12803
      8 C8          0.1536   -3.5662   -2.2352 CT        1 <0>        0.15536
      9 O1         -0.9126   -3.1052   -3.0679 OS        1 <0>       -0.42481
     10 H1          0.5183   -1.4394    1.4075 HC        1 <0>        0.03333
     11 H2          2.0900   -1.1481    0.6352 HC        1 <0>        0.03333
     12 H3          1.9562   -2.3142    1.9620 HC        1 <0>        0.03333
     13 H4         -1.9548   -2.1908   -5.3410 HC        1 <0>        0.04302
     14 H5         -2.6324   -1.2870   -3.9656 HC        1 <0>        0.04302
     15 H6         -1.5109   -0.4900   -5.0620 HC        1 <0>        0.04302
     16 H7         -1.1729   -4.7282   -0.9535 HC        1 <0>        0.04342
     17 H8          0.4928   -5.2770   -0.9306 HC        1 <0>        0.04342
     18 H9         -0.5326   -5.6399   -2.3379 HC        1 <0>        0.04342
     19 H10         1.7236   -2.8815   -3.5887 HC        1 <0>        0.04342
     20 H11         1.1480   -4.4953   -3.9323 HC        1 <0>        0.04342
     21 H12         2.2119   -4.2324   -2.5357 HC        1 <0>        0.04342
     22 H13         2.1167   -3.4837   -0.2211 HC        1 <0>        0.04116
     23 H14         0.5820   -3.8086    0.5900 HC        1 <0>        0.04116
     24 H15        -0.5483   -2.0783   -0.8159 HC        1 <0>        0.04789
     25 H16         0.9966   -1.6902   -1.5747 HC        1 <0>        0.04789
     26 H17        -0.3601   -1.1337   -2.9410 H1        1 <0>        0.02314
     27 H18         0.3209   -2.0421   -4.3156 H1        1 <0>        0.02314
@<TRIPOS>BOND
     1    1    5 1
     2    2    7 1
     3    3    8 1
     4    4    8 1
     5    5    6 1
     6    6    8 1
     7    7    9 1
     8    8    9 1
     9    1   10 1
    10    1   11 1
    11    1   12 1
    12    2   13 1
    13    2   14 1
    14    2   15 1
    15    3   16 1
    16    3   17 1
    17    3   18 1
    18    4   19 1
    19    4   20 1
    20    4   21 1
    21    5   22 1
    22    5   23 1
    23    6   24 1
    24    6   25 1
    25    7   26 1
    26    7   27 1
@<TRIPOS>SUBSTRUCTURE
     1 <0>         1 GROUP 0 A     ****
