@<TRIPOS>MOLECULE
AlkEthOH_r842
   20    20     1     0     0
SMALL
USER_CHARGES

@<TRIPOS>ATOM
      1 C1          1.1680    1.0697    0.0819 CT        1 <0>       -0.10722
      2 C2          1.2310   -0.3042    0.7093 CT        1 <0>       -0.09012
      3 C3          0.2595    0.8194   -1.1099 CT        1 <0>        0.14221
      4 C4         -0.2000   -0.7934    0.5202 CT        1 <0>        0.33190
      5 C5         -0.5223    2.0450   -1.5413 CT        1 <0>       -0.09915
      6 C6         -0.2985   -2.3101    0.4592 CT        1 <0>       -0.10969
      7 O1         -0.6490   -0.2260   -0.7223 OS        1 <0>       -0.45650
      8 O2         -0.9888   -0.3004    1.6030 OH        1 <0>       -0.61950
      9 H1          0.7148    1.7797    0.7843 HC        1 <0>        0.06156
     10 H2          2.1483    1.4584   -0.2079 HC        1 <0>        0.06156
     11 H3          1.9397   -0.9234    0.1462 HC        1 <0>        0.06570
     12 H4          1.5467   -0.2675    1.7562 HC        1 <0>        0.06570
     13 H5          0.8438    0.4381   -1.9558 H1        1 <0>        0.04688
     14 H6         -1.1092    2.4347   -0.7063 HC        1 <0>        0.04502
     15 H7         -1.2032    1.7934   -2.3577 HC        1 <0>        0.04502
     16 H8          0.1579    2.8283   -1.8842 HC        1 <0>        0.04502
     17 H9         -1.3375   -2.6136    0.3236 HC        1 <0>        0.05168
     18 H10         0.0779   -2.7481    1.3846 HC        1 <0>        0.05168
     19 H11         0.2912   -2.6911   -0.3758 HC        1 <0>        0.05168
     20 H12        -1.8896   -0.6262    1.4562 HO        1 <0>        0.41657
@<TRIPOS>BOND
     1    1    2 1
     2    1    3 1
     3    2    4 1
     4    3    5 1
     5    3    7 1
     6    4    6 1
     7    4    7 1
     8    4    8 1
     9    1    9 1
    10    1   10 1
    11    2   11 1
    12    2   12 1
    13    3   13 1
    14    5   14 1
    15    5   15 1
    16    5   16 1
    17    6   17 1
    18    6   18 1
    19    6   19 1
    20    8   20 1
@<TRIPOS>SUBSTRUCTURE
     1 <0>         1 GROUP 0 A     ****
