@<TRIPOS>MOLECULE
AlkEthOH_r560
   29    29     1     0     0
SMALL
USER_CHARGES

@<TRIPOS>ATOM
      1 C1          1.9973    1.2337    0.5567 CT        1 <0>       -0.10773
      2 C2          1.2822    0.7633    1.8345 CT        1 <0>       -0.07195
      3 C3         -1.3229   -0.1440   -1.1487 CT        1 <0>       -0.11549
      4 C4          1.2243    2.2474   -0.2890 CT        1 <0>        0.13654
      5 C5          0.0016   -0.0431    1.6063 CT        1 <0>        0.13005
      6 C6         -0.2178    0.8255   -1.5836 CT        1 <0>        0.13630
      7 C7         -0.8373   -1.3408   -0.2825 CT        1 <0>        0.15725
      8 C8         -0.2692   -2.4325   -1.2064 CT        1 <0>       -0.10325
      9 C9         -2.0043   -1.9453    0.5112 CT        1 <0>       -0.10325
     10 O1         -0.1018    1.8379   -0.5854 OS        1 <0>       -0.43102
     11 O2          0.2479   -1.0022    0.5869 OS        1 <0>       -0.42555
     12 H1          2.9544    1.6877    0.8420 HC        1 <0>        0.05119
     13 H2          2.2513    0.3607   -0.0551 HC        1 <0>        0.05119
     14 H3          1.9899    0.1231    2.3769 HC        1 <0>        0.04259
     15 H4          1.0670    1.6173    2.4867 HC        1 <0>        0.04259
     16 H5         -2.0811    0.4218   -0.5915 HC        1 <0>        0.05652
     17 H6         -1.8300   -0.5364   -2.0393 HC        1 <0>        0.05652
     18 H7          1.1464    3.1850    0.2722 H1        1 <0>        0.04130
     19 H8          1.7635    2.4733   -1.2164 H1        1 <0>        0.04130
     20 H9         -0.2666   -0.5742    2.5262 H1        1 <0>        0.03920
     21 H10        -0.8314    0.6230    1.3667 H1        1 <0>        0.03920
     22 H11         0.7279    0.3101   -1.7776 H1        1 <0>        0.03952
     23 H12        -0.5191    1.3287   -2.5085 H1        1 <0>        0.03952
     24 H13         0.0705   -3.2689   -0.6047 HC        1 <0>        0.04291
     25 H14         0.5635   -2.0257   -1.7703 HC        1 <0>        0.04291
     26 H15        -1.0457   -2.7636   -1.8879 HC        1 <0>        0.04291
     27 H16        -1.6423   -2.7777    1.1075 HC        1 <0>        0.04291
     28 H17        -2.7659   -2.2969   -0.1785 HC        1 <0>        0.04291
     29 H18        -2.4274   -1.1876    1.1642 HC        1 <0>        0.04291
@<TRIPOS>BOND
     1    1    2 1
     2    1    4 1
     3    2    5 1
     4    3    6 1
     5    3    7 1
     6    4   10 1
     7    5   11 1
     8    6   10 1
     9    7    8 1
    10    7    9 1
    11    7   11 1
    12    1   12 1
    13    1   13 1
    14    2   14 1
    15    2   15 1
    16    3   16 1
    17    3   17 1
    18    4   18 1
    19    4   19 1
    20    5   20 1
    21    5   21 1
    22    6   22 1
    23    6   23 1
    24    8   24 1
    25    8   25 1
    26    8   26 1
    27    9   27 1
    28    9   28 1
    29    9   29 1
@<TRIPOS>SUBSTRUCTURE
     1 <0>         1 GROUP 0 A     ****
