@<TRIPOS>MOLECULE
AlkEthOH_c401
   34    33     1     0     0
SMALL
USER_CHARGES

@<TRIPOS>ATOM
      1 C1         -1.0068   -2.6047   -0.0945 CT        1 <0>       -0.09096
      2 C2         -2.8257   -1.4037    1.1275 CT        1 <0>       -0.09096
      3 C3          2.4657    0.2724    0.5957 CT        1 <0>       -0.10609
      4 C4          3.2174   -1.7100   -0.7511 CT        1 <0>       -0.10609
      5 C5          2.7902    0.4869   -1.8909 CT        1 <0>       -0.10609
      6 C6         -0.6753    0.3065   -2.3276 CT        1 <0>       -0.12999
      7 C7         -0.9613   -0.0410    0.1341 CT        1 <0>       -0.10769
      8 C8         -1.8245   -1.3156   -0.0299 CT        1 <0>       -0.05654
      9 C9          2.3684   -0.4406   -0.7522 CT        1 <0>        0.18616
     10 C10         0.0678    0.2425   -0.9861 CT        1 <0>        0.36720
     11 O1          0.6573    1.5156   -0.7193 OH        1 <0>       -0.62496
     12 O2          1.0189   -0.8288   -0.9617 OS        1 <0>       -0.43857
     13 H1         -0.4069   -2.7314    0.8135 HC        1 <0>        0.03615
     14 H2         -0.3246   -2.6012   -0.9509 HC        1 <0>        0.03615
     15 H3         -1.6552   -3.4824   -0.1698 HC        1 <0>        0.03615
     16 H4         -2.3056   -1.4873    2.0877 HC        1 <0>        0.03615
     17 H5         -3.4821   -2.2741    1.0196 HC        1 <0>        0.03615
     18 H6         -3.4545   -0.5078    1.1681 HC        1 <0>        0.03615
     19 H7          1.8577    1.1842    0.5990 HC        1 <0>        0.04328
     20 H8          2.1328   -0.3705    1.4171 HC        1 <0>        0.04328
     21 H9          3.4958    0.5871    0.7982 HC        1 <0>        0.04328
     22 H10         3.1506   -2.2249   -1.7164 HC        1 <0>        0.04328
     23 H11         2.8575   -2.4196    0.0027 HC        1 <0>        0.04328
     24 H12         4.2705   -1.4916   -0.5469 HC        1 <0>        0.04328
     25 H13         2.7206   -0.0243   -2.8579 HC        1 <0>        0.04328
     26 H14         2.1675    1.3865   -1.9300 HC        1 <0>        0.04328
     27 H15         3.8367    0.7924   -1.7774 HC        1 <0>        0.04328
     28 H16         0.0137    0.5060   -3.1548 HC        1 <0>        0.04926
     29 H17        -1.2142   -0.6269   -2.5238 HC        1 <0>        0.04926
     30 H18        -1.4287    1.1017   -2.3294 HC        1 <0>        0.04926
     31 H19        -0.4396   -0.0890    1.0996 HC        1 <0>        0.04796
     32 H20        -1.6559    0.8089    0.1852 HC        1 <0>        0.04796
     33 H21        -2.4052   -1.2342   -0.9570 HC        1 <0>        0.04341
     34 H22        -0.0503    2.1803   -0.6792 HO        1 <0>        0.41105
@<TRIPOS>BOND
     1    1    8 1
     2    2    8 1
     3    3    9 1
     4    4    9 1
     5    5    9 1
     6    6   10 1
     7    7    8 1
     8    7   10 1
     9    9   12 1
    10   10   11 1
    11   10   12 1
    12    1   13 1
    13    1   14 1
    14    1   15 1
    15    2   16 1
    16    2   17 1
    17    2   18 1
    18    3   19 1
    19    3   20 1
    20    3   21 1
    21    4   22 1
    22    4   23 1
    23    4   24 1
    24    5   25 1
    25    5   26 1
    26    5   27 1
    27    6   28 1
    28    6   29 1
    29    6   30 1
    30    7   31 1
    31    7   32 1
    32    8   33 1
    33   11   34 1
@<TRIPOS>SUBSTRUCTURE
     1 <0>         1 GROUP 0 A     ****
