@<TRIPOS>MOLECULE
AlkEthOH_r334
   27    27     1     0     0
SMALL
USER_CHARGES

@<TRIPOS>ATOM
      1 C1         -0.9763    1.0015    1.7679 CT        1 <0>       -0.06823
      2 C2         -1.0035   -0.5239    1.7994 CT        1 <0>       -0.06819
      3 C3         -1.0488    1.6138    0.3700 CT        1 <0>       -0.12785
      4 C4          0.2849   -1.1375    1.2620 CT        1 <0>       -0.12785
      5 C5          0.0277    1.1428   -0.6200 CT        1 <0>        0.36440
      6 C6          0.3595   -1.2713   -0.2683 CT        1 <0>        0.36440
      7 C7         -0.0983    1.9681   -1.9065 CT        1 <0>       -0.11599
      8 C8         -0.3662   -2.5461   -0.7182 CT        1 <0>       -0.11599
      9 O1         -0.2453   -0.2071   -0.9985 OS        1 <0>       -0.40720
     10 O2          1.3237    1.3688   -0.0734 OH        1 <0>       -0.59639
     11 O3          1.7426   -1.4092   -0.6145 OH        1 <0>       -0.59639
     12 H1         -1.8315    1.3744    2.3457 HC        1 <0>        0.04242
     13 H2         -0.0803    1.3673    2.2846 HC        1 <0>        0.04242
     14 H3         -1.1123   -0.8304    2.8474 HC        1 <0>        0.04242
     15 H4         -1.8822   -0.9078    1.2700 HC        1 <0>        0.04242
     16 H5         -2.0427    1.3996   -0.0445 HC        1 <0>        0.05396
     17 H6         -0.9764    2.7021    0.4949 HC        1 <0>        0.05396
     18 H7          1.1434   -0.5624    1.6332 HC        1 <0>        0.05396
     19 H8          0.4220   -2.1315    1.7093 HC        1 <0>        0.05396
     20 H9          0.6570    1.6473   -2.6187 HC        1 <0>        0.05082
     21 H10         0.0444    3.0207   -1.6776 HC        1 <0>        0.05082
     22 H11        -1.0858    1.8218   -2.3360 HC        1 <0>        0.05082
     23 H12        -0.3088   -2.6330   -1.7996 HC        1 <0>        0.05082
     24 H13        -1.4078   -2.4962   -0.4137 HC        1 <0>        0.05082
     25 H14         0.1043   -3.4114   -0.2597 HC        1 <0>        0.05082
     26 H15         1.3959    2.3235    0.0822 HO        1 <0>        0.40242
     27 H16         2.0547   -2.2064   -0.1633 HO        1 <0>        0.40242
@<TRIPOS>BOND
     1    1    2 1
     2    1    3 1
     3    2    4 1
     4    3    5 1
     5    4    6 1
     6    5    7 1
     7    5    9 1
     8    5   10 1
     9    6    8 1
    10    6    9 1
    11    6   11 1
    12    1   12 1
    13    1   13 1
    14    2   14 1
    15    2   15 1
    16    3   16 1
    17    3   17 1
    18    4   18 1
    19    4   19 1
    20    7   20 1
    21    7   21 1
    22    7   22 1
    23    8   23 1
    24    8   24 1
    25    8   25 1
    26   10   26 1
    27   11   27 1
@<TRIPOS>SUBSTRUCTURE
     1 <0>         1 GROUP 0 A     ****
