@<TRIPOS>MOLECULE
AlkEthOH_r160
   20    20     1     0     0
SMALL
USER_CHARGES

@<TRIPOS>ATOM
      1 C1          0.4697    1.3683   -1.3215 CT        1 <0>       -0.14515
      2 C2          0.6028   -0.0195   -1.9465 CT        1 <0>        0.14110
      3 C3          0.3117   -1.9157   -0.5323 CT        1 <0>        0.33840
      4 C4         -0.4488    1.4114   -0.0945 CT        1 <0>        0.35377
      5 C5         -0.6581   -0.5789    1.2110 CT        1 <0>        0.54373
      6 O1          1.2080   -0.9187   -1.0205 OS        1 <0>       -0.45279
      7 O2         -0.8801   -1.4217    0.0756 OS        1 <0>       -0.50724
      8 O3          0.0980    0.6059    0.9498 OS        1 <0>       -0.51483
      9 O4         -0.5858    2.7591    0.3554 OH        1 <0>       -0.59538
     10 O5         -0.1174   -1.2903    2.3234 OH        1 <0>       -0.61277
     11 H1          1.4674    1.7107   -1.0162 HC        1 <0>        0.06964
     12 H2          0.1090    2.0782   -2.0752 HC        1 <0>        0.06964
     13 H3         -0.3650   -0.3867   -2.3084 H1        1 <0>        0.05247
     14 H4          1.2705    0.0465   -2.8121 H1        1 <0>        0.05247
     15 H5          0.0205   -2.5654   -1.3651 H2        1 <0>        0.07103
     16 H6          0.8555   -2.5401    0.1845 H2        1 <0>        0.07103
     17 H7         -1.4634    1.0601   -0.3781 H2        1 <0>        0.08937
     18 H8         -1.6643   -0.2411    1.5261 H3        1 <0>        0.11996
     19 H9         -0.9707    3.2569   -0.3819 HO        1 <0>        0.41433
     20 H10        -0.0043   -0.6411    3.0336 HO        1 <0>        0.44122
@<TRIPOS>BOND
     1    1    2 1
     2    1    4 1
     3    2    6 1
     4    3    6 1
     5    3    7 1
     6    4    8 1
     7    4    9 1
     8    5    7 1
     9    5    8 1
    10    5   10 1
    11    1   11 1
    12    1   12 1
    13    2   13 1
    14    2   14 1
    15    3   15 1
    16    3   16 1
    17    4   17 1
    18    5   18 1
    19    9   19 1
    20   10   20 1
@<TRIPOS>SUBSTRUCTURE
     1 <0>         1 GROUP 0 A     ****
