@<TRIPOS>MOLECULE
AlkEthOH_r520
   19    19     1     0     0
SMALL
USER_CHARGES

@<TRIPOS>ATOM
      1 C1          0.1324    0.4394   -1.4607 CT        1 <0>       -0.17030
      2 C2          0.8798    1.4442   -0.5919 CT        1 <0>        0.14110
      3 C3         -0.2893    0.6216    1.2909 CT        1 <0>        0.52019
      4 C4         -0.2782   -0.7881   -0.6371 CT        1 <0>        0.35394
      5 C5         -1.2089   -1.6861   -1.4505 CT        1 <0>       -0.10969
      6 O1          0.0917    1.7817    0.5462 OS        1 <0>       -0.47368
      7 O2         -0.9939   -0.3641    0.5289 OS        1 <0>       -0.41169
      8 O3          0.7694    0.0803    2.0785 OH        1 <0>       -0.61087
      9 O4          0.8970   -1.5288   -0.3044 OH        1 <0>       -0.58744
     10 H1         -0.7706    0.9323   -1.8428 HC        1 <0>        0.06401
     11 H2          0.7595    0.1530   -2.3122 HC        1 <0>        0.06401
     12 H3          1.8486    1.0516   -0.2628 H1        1 <0>        0.06241
     13 H4          1.0702    2.3629   -1.1555 H1        1 <0>        0.06241
     14 H5         -1.0409    0.9943    2.0163 H3        1 <0>        0.11322
     15 H6         -1.4944   -2.5535   -0.8581 HC        1 <0>        0.05474
     16 H7         -0.7012   -2.0214   -2.3531 HC        1 <0>        0.05474
     17 H8         -2.1042   -1.1329   -1.7286 HC        1 <0>        0.05474
     18 H9          1.0373    0.7791    2.6940 HO        1 <0>        0.41557
     19 H10         1.3037   -1.7874   -1.1448 HO        1 <0>        0.40259
@<TRIPOS>BOND
     1    1    2 1
     2    1    4 1
     3    2    6 1
     4    3    6 1
     5    3    7 1
     6    3    8 1
     7    4    5 1
     8    4    7 1
     9    4    9 1
    10    1   10 1
    11    1   11 1
    12    2   12 1
    13    2   13 1
    14    3   14 1
    15    5   15 1
    16    5   16 1
    17    5   17 1
    18    8   18 1
    19    9   19 1
@<TRIPOS>SUBSTRUCTURE
     1 <0>         1 GROUP 0 A     ****
