@<TRIPOS>MOLECULE
AlkEthOH_c85
   29    28     1     0     0
SMALL
USER_CHARGES

@<TRIPOS>ATOM
      1 C1          2.2670    0.3984   -0.1974 CT        1 <0>       -0.12406
      2 C2         -2.8752   -0.1351   -0.8328 CT        1 <0>       -0.10688
      3 C3         -1.7523   -0.5116   -3.0479 CT        1 <0>       -0.10688
      4 C4         -1.3585   -2.1173   -1.1572 CT        1 <0>       -0.10688
      5 C5         -0.3232    1.5194    0.8907 CT        1 <0>       -0.12271
      6 C6          1.1894   -0.4579    0.4667 CT        1 <0>        0.09896
      7 C7         -1.6230   -0.6602   -1.5335 CT        1 <0>        0.18724
      8 C8         -0.2395    0.1095    0.2893 CT        1 <0>        0.37786
      9 O1          1.4938   -0.5667    1.8562 OH        1 <0>       -0.62228
     10 O2         -1.1181   -0.7681    0.9999 OH        1 <0>       -0.62289
     11 O3         -0.5124    0.1222   -1.1202 OS        1 <0>       -0.44636
     12 H1          2.2488    1.4140    0.2135 HC        1 <0>        0.04903
     13 H2          3.2671   -0.0159   -0.0403 HC        1 <0>        0.04903
     14 H3          2.0898    0.4988   -1.2735 HC        1 <0>        0.04903
     15 H4         -2.7863   -0.2400    0.2544 HC        1 <0>        0.04425
     16 H5         -3.0564    0.9190   -1.0669 HC        1 <0>        0.04425
     17 H6         -3.7592   -0.7120   -1.1277 HC        1 <0>        0.04425
     18 H7         -0.8560   -0.8871   -3.5547 HC        1 <0>        0.04425
     19 H8         -1.8473    0.5432   -3.3299 HC        1 <0>        0.04425
     20 H9         -2.6217   -1.0534   -3.4342 HC        1 <0>        0.04425
     21 H10        -0.4603   -2.4942   -1.6596 HC        1 <0>        0.04425
     22 H11        -1.2263   -2.2372   -0.0770 HC        1 <0>        0.04425
     23 H12        -2.1859   -2.7595   -1.4801 HC        1 <0>        0.04425
     24 H13        -1.3247    1.9475    0.7800 HC        1 <0>        0.05181
     25 H14         0.4093    2.1881    0.4255 HC        1 <0>        0.05181
     26 H15        -0.0901    1.5090    1.9612 HC        1 <0>        0.05181
     27 H16         1.2357   -1.4647    0.0331 H1        1 <0>        0.04979
     28 H17         2.3657   -0.9863    1.9144 HO        1 <0>        0.41063
     29 H18        -0.8436   -0.7885    1.9319 HO        1 <0>        0.43369
@<TRIPOS>BOND
     1    1    6 1
     2    2    7 1
     3    3    7 1
     4    4    7 1
     5    5    8 1
     6    6    8 1
     7    6    9 1
     8    7   11 1
     9    8   10 1
    10    8   11 1
    11    1   12 1
    12    1   13 1
    13    1   14 1
    14    2   15 1
    15    2   16 1
    16    2   17 1
    17    3   18 1
    18    3   19 1
    19    3   20 1
    20    4   21 1
    21    4   22 1
    22    4   23 1
    23    5   24 1
    24    5   25 1
    25    5   26 1
    26    6   27 1
    27    9   28 1
    28   10   29 1
@<TRIPOS>SUBSTRUCTURE
     1 <0>         1 GROUP 0 A     ****
