@<TRIPOS>MOLECULE
AlkEthOH_r394
   30    30     1     0     0
SMALL
USER_CHARGES

@<TRIPOS>ATOM
      1 C1          0.8696    1.6351    1.3875 CT        1 <0>       -0.07370
      2 C2          1.8820    0.5116    1.1724 CT        1 <0>       -0.06475
      3 C3          0.5623    2.4997    0.1603 CT        1 <0>       -0.09971
      4 C4          1.5718   -0.5825    0.1492 CT        1 <0>       -0.10836
      5 C5         -1.0500   -0.8638    0.1320 CT        1 <0>       -0.11900
      6 C6         -0.6931    2.0761   -0.5968 CT        1 <0>        0.13725
      7 C7         -1.2639   -0.1777   -1.2263 CT        1 <0>        0.34236
      8 C8          0.3419   -1.4900    0.3738 CT        1 <0>        0.16575
      9 C9          0.3700   -2.1197    1.7730 CT        1 <0>       -0.12317
     10 O1         -0.4160    0.9501   -1.4182 OS        1 <0>       -0.41889
     11 O2         -2.6458    0.1530   -1.3626 OH        1 <0>       -0.63242
     12 O3          0.4712   -2.5919   -0.5443 OH        1 <0>       -0.61233
     13 H1         -0.0454    1.2585    1.8518 HC        1 <0>        0.03632
     14 H2          1.3130    2.3004    2.1416 HC        1 <0>        0.03632
     15 H3          2.8352    0.9722    0.8784 HC        1 <0>        0.03673
     16 H4          2.0813    0.0425    2.1437 HC        1 <0>        0.03673
     17 H5          0.3961    3.5253    0.5136 HC        1 <0>        0.05019
     18 H6          1.4278    2.5257   -0.5117 HC        1 <0>        0.05019
     19 H7          1.5679   -0.1648   -0.8625 HC        1 <0>        0.05664
     20 H8          2.4554   -1.2396    0.1305 HC        1 <0>        0.05664
     21 H9         -1.2991   -0.1727    0.9417 HC        1 <0>        0.06101
     22 H10        -1.8073   -1.6581    0.2070 HC        1 <0>        0.06101
     23 H11        -1.5330    1.9159    0.0883 H1        1 <0>        0.04957
     24 H12        -0.9847    2.8880   -1.2725 H1        1 <0>        0.04957
     25 H13        -1.0263   -0.8938   -2.0187 H2        1 <0>        0.08361
     26 H14        -0.5043   -2.7511    1.9031 HC        1 <0>        0.04321
     27 H15         0.3646   -1.3342    2.5232 HC        1 <0>        0.04321
     28 H16         1.2695   -2.7190    1.8818 HC        1 <0>        0.04321
     29 H17        -3.1346   -0.6824   -1.3102 HO        1 <0>        0.41235
     30 H18         1.3011   -3.0273   -0.3129 HO        1 <0>        0.40046
@<TRIPOS>BOND
     1    1    2 1
     2    1    3 1
     3    2    4 1
     4    3    6 1
     5    4    8 1
     6    5    7 1
     7    5    8 1
     8    6   10 1
     9    7   10 1
    10    7   11 1
    11    8    9 1
    12    8   12 1
    13    1   13 1
    14    1   14 1
    15    2   15 1
    16    2   16 1
    17    3   17 1
    18    3   18 1
    19    4   19 1
    20    4   20 1
    21    5   21 1
    22    5   22 1
    23    6   23 1
    24    6   24 1
    25    7   25 1
    26    9   26 1
    27    9   27 1
    28    9   28 1
    29   11   29 1
    30   12   30 1
@<TRIPOS>SUBSTRUCTURE
     1 <0>         1 GROUP 0 A     ****
