@<TRIPOS>MOLECULE
AlkEthOH_r134
   18    18     1     0     0
SMALL
USER_CHARGES

@<TRIPOS>ATOM
      1 C1          0.3592   -1.0324    0.0749 CT        1 <0>       -0.15285
      2 C2          1.2531   -1.2041    1.2938 CT        1 <0>        0.12785
      3 C3          0.6168   -3.4654    1.5753 CT        1 <0>        0.08935
      4 C4         -0.8185   -2.0025    0.1233 CT        1 <0>        0.14622
      5 C5         -0.3291   -3.4272    0.3797 CT        1 <0>        0.11349
      6 O1          1.7002   -2.5556    1.4020 OS        1 <0>       -0.40578
      7 O2         -1.5143   -1.9671   -1.1196 OH        1 <0>       -0.58467
      8 O3         -1.4503   -4.2670    0.6318 OH        1 <0>       -0.58446
      9 H1         -0.0005    0.0000   -0.0012 HC        1 <0>        0.06029
     10 H2          0.9414   -1.2247   -0.8359 HC        1 <0>        0.06029
     11 H3          2.1381   -0.5667    1.1998 H1        1 <0>        0.05177
     12 H4          0.7335   -0.9156    2.2151 H1        1 <0>        0.05177
     13 H5          0.0903   -3.2426    2.5120 H1        1 <0>        0.05559
     14 H6          1.0315   -4.4730    1.6900 H1        1 <0>        0.05559
     15 H7         -1.5286   -1.7015    0.9034 H1        1 <0>        0.05130
     16 H8          0.1797   -3.8054   -0.5166 H1        1 <0>        0.06384
     17 H9         -1.8221   -1.0550   -1.2387 HO        1 <0>        0.39958
     18 H10        -1.1024   -5.1625    0.7676 HO        1 <0>        0.40083
@<TRIPOS>BOND
     1    1    2 1
     2    1    4 1
     3    2    6 1
     4    3    5 1
     5    3    6 1
     6    4    5 1
     7    4    7 1
     8    5    8 1
     9    1    9 1
    10    1   10 1
    11    2   11 1
    12    2   12 1
    13    3   13 1
    14    3   14 1
    15    4   15 1
    16    5   16 1
    17    7   17 1
    18    8   18 1
@<TRIPOS>SUBSTRUCTURE
     1 <0>         1 GROUP 0 A     ****
