@<TRIPOS>MOLECULE
AlkEthOH_r857
   20    20     1     0     0
SMALL
USER_CHARGES

@<TRIPOS>ATOM
      1 C1          0.2516    0.5122    1.6697 CT        1 <0>       -0.07503
      2 C2          1.3096    0.6172    0.5774 CT        1 <0>       -0.10886
      3 C3         -0.5934   -0.7423    1.4693 CT        1 <0>       -0.13984
      4 C4          0.6671    0.5005   -0.8053 CT        1 <0>        0.14059
      5 C5         -1.1365   -0.8255    0.0438 CT        1 <0>        0.33689
      6 C6          1.7256    0.4910   -1.9003 CT        1 <0>       -0.09123
      7 O1         -0.0790   -0.7164   -0.9118 OS        1 <0>       -0.40755
      8 O2         -2.1450    0.1633   -0.1426 OH        1 <0>       -0.62211
      9 H1          0.7301    0.4890    2.6550 HC        1 <0>        0.04548
     10 H2         -0.3913    1.4004    1.6454 HC        1 <0>        0.04548
     11 H3          1.8539    1.5633    0.6718 HC        1 <0>        0.05028
     12 H4          2.0343   -0.1950    0.7181 HC        1 <0>        0.05028
     13 H5          0.0377   -1.6183    1.6632 HC        1 <0>        0.05378
     14 H6         -1.4142   -0.7477    2.1948 HC        1 <0>        0.05378
     15 H7         -0.0069    1.3478   -0.9828 H1        1 <0>        0.05736
     16 H8         -1.6057   -1.8056   -0.0957 H2        1 <0>        0.06996
     17 H9          2.4115   -0.3429   -1.7493 HC        1 <0>        0.04453
     18 H10         2.2919    1.4223   -1.8803 HC        1 <0>        0.04453
     19 H11         1.2518    0.3864   -2.8767 HC        1 <0>        0.04453
     20 H12        -2.8426   -0.0276    0.5037 HO        1 <0>        0.40715
@<TRIPOS>BOND
     1    1    2 1
     2    1    3 1
     3    2    4 1
     4    3    5 1
     5    4    6 1
     6    4    7 1
     7    5    7 1
     8    5    8 1
     9    1    9 1
    10    1   10 1
    11    2   11 1
    12    2   12 1
    13    3   13 1
    14    3   14 1
    15    4   15 1
    16    5   16 1
    17    6   17 1
    18    6   18 1
    19    6   19 1
    20    8   20 1
@<TRIPOS>SUBSTRUCTURE
     1 <0>         1 GROUP 0 A     ****
