@<TRIPOS>MOLECULE
AlkEthOH_c621
   25    24     1     0     0
SMALL
USER_CHARGES

@<TRIPOS>ATOM
      1 C1          0.6510   -0.1608    2.9407 CT        1 <0>       -0.13012
      2 C2          1.4265    0.1061   -1.4661 CT        1 <0>       -0.08910
      3 C3         -0.5575    1.6172   -1.5834 CT        1 <0>       -0.08910
      4 C4          0.0073    0.5500    0.6058 CT        1 <0>       -0.06479
      5 C5         -0.8809   -0.8628   -1.3774 CT        1 <0>        0.13836
      6 C6          0.6442   -0.5535    1.4666 CT        1 <0>        0.14176
      7 C7         -0.0024    0.3269   -0.9374 CT        1 <0>       -0.04653
      8 O1         -2.2219   -0.6968   -0.9369 OH        1 <0>       -0.60165
      9 O2         -0.0764   -1.7746    1.3432 OH        1 <0>       -0.60358
     10 H1         -0.3691    0.0375    3.2875 HC        1 <0>        0.04257
     11 H2          1.2223    0.7605    3.1000 HC        1 <0>        0.04257
     12 H3          1.0822   -0.9522    3.5613 HC        1 <0>        0.04257
     13 H4          1.8690   -0.8006   -1.0374 HC        1 <0>        0.03635
     14 H5          2.0877    0.9398   -1.2089 HC        1 <0>        0.03635
     15 H6          1.4329   -0.0059   -2.5560 HC        1 <0>        0.03635
     16 H7         -1.5775    1.8292   -1.2444 HC        1 <0>        0.03635
     17 H8         -0.5802    1.5357   -2.6760 HC        1 <0>        0.03635
     18 H9          0.0630    2.4844   -1.3301 HC        1 <0>        0.03635
     19 H10        -1.0267    0.7033    0.9435 HC        1 <0>        0.05693
     20 H11         0.5389    1.4902    0.8082 HC        1 <0>        0.05693
     21 H12        -0.4998   -1.8100   -0.9832 H1        1 <0>        0.03150
     22 H13        -0.8936   -0.9479   -2.4704 H1        1 <0>        0.03150
     23 H14         1.6753   -0.7434    1.1560 H1        1 <0>        0.02800
     24 H15        -2.7161   -1.4737   -1.2448 HO        1 <0>        0.39942
     25 H16         0.3914   -2.4297    1.8850 HO        1 <0>        0.39466
@<TRIPOS>BOND
     1    1    6 1
     2    2    7 1
     3    3    7 1
     4    4    6 1
     5    4    7 1
     6    5    7 1
     7    5    8 1
     8    6    9 1
     9    1   10 1
    10    1   11 1
    11    1   12 1
    12    2   13 1
    13    2   14 1
    14    2   15 1
    15    3   16 1
    16    3   17 1
    17    3   18 1
    18    4   19 1
    19    4   20 1
    20    5   21 1
    21    5   22 1
    22    6   23 1
    23    8   24 1
    24    9   25 1
@<TRIPOS>SUBSTRUCTURE
     1 <0>         1 GROUP 0 A     ****
