@<TRIPOS>MOLECULE
AlkEthOH_c396
   28    27     1     0     0
SMALL
USER_CHARGES

@<TRIPOS>ATOM
      1 C1          1.5508   -2.3656   -0.4056 CT        1 <0>       -0.08996
      2 C2          0.7392   -2.4380    1.9538 CT        1 <0>       -0.08996
      3 C3         -0.6850    1.6198   -0.8055 CT        1 <0>       -0.12570
      4 C4          1.7704    1.0007   -0.6423 CT        1 <0>       -0.11449
      5 C5          0.0041   -0.5442    0.3691 CT        1 <0>       -0.06139
      6 C6          2.0563    1.9231    0.5367 CT        1 <0>        0.13672
      7 C7          1.1295   -1.5154    0.7997 CT        1 <0>       -0.06536
      8 C8          0.3226    0.4688   -0.7584 CT        1 <0>        0.15814
      9 O1          3.4320    2.2876    0.5011 OH        1 <0>       -0.60324
     10 O2          0.2494   -0.1966   -2.0257 OH        1 <0>       -0.59952
     11 H1          0.7193   -2.9785   -0.7696 HC        1 <0>        0.03529
     12 H2          2.3758   -3.0357   -0.1410 HC        1 <0>        0.03529
     13 H3          1.8920   -1.7311   -1.2303 HC        1 <0>        0.03529
     14 H4         -0.1355   -3.0440    1.7025 HC        1 <0>        0.03529
     15 H5          0.4739   -1.8573    2.8441 HC        1 <0>        0.03529
     16 H6          1.5617   -3.1089    2.2231 HC        1 <0>        0.03529
     17 H7         -1.7085    1.2357   -0.8877 HC        1 <0>        0.04267
     18 H8         -0.6621    2.2083    0.1182 HC        1 <0>        0.04267
     19 H9         -0.4996    2.2921   -1.6487 HC        1 <0>        0.04267
     20 H10         2.4701    0.1536   -0.6107 HC        1 <0>        0.06274
     21 H11         2.0407    1.5216   -1.5722 HC        1 <0>        0.06274
     22 H12        -0.3210    0.0139    1.2580 HC        1 <0>        0.05026
     23 H13        -0.8489   -1.1592    0.0579 HC        1 <0>        0.05026
     24 H14         1.8653    1.4276    1.4919 H1        1 <0>        0.02372
     25 H15         1.4628    2.8398    0.4807 H1        1 <0>        0.02372
     26 H16         2.0077   -0.9343    1.1050 HC        1 <0>        0.04457
     27 H17         3.5842    2.8724    1.2602 HO        1 <0>        0.39986
     28 H18         0.4801    0.4671   -2.6908 HO        1 <0>        0.39714
@<TRIPOS>BOND
     1    1    7 1
     2    2    7 1
     3    3    8 1
     4    4    6 1
     5    4    8 1
     6    5    7 1
     7    5    8 1
     8    6    9 1
     9    8   10 1
    10    1   11 1
    11    1   12 1
    12    1   13 1
    13    2   14 1
    14    2   15 1
    15    2   16 1
    16    3   17 1
    17    3   18 1
    18    3   19 1
    19    4   20 1
    20    4   21 1
    21    5   22 1
    22    5   23 1
    23    6   24 1
    24    6   25 1
    25    7   26 1
    26    9   27 1
    27   10   28 1
@<TRIPOS>SUBSTRUCTURE
     1 <0>         1 GROUP 0 A     ****
