@<TRIPOS>MOLECULE
AlkEthOH_r304
   22    22     1     0     0
SMALL
USER_CHARGES

@<TRIPOS>ATOM
      1 C1         -1.2012    0.9977   -0.4271 CT        1 <0>       -0.08736
      2 C2         -1.4832   -0.5152   -0.3853 CT        1 <0>       -0.12491
      3 C3          0.3140    0.6882   -0.2618 CT        1 <0>       -0.05106
      4 C4         -0.1142   -0.7221    0.3234 CT        1 <0>        0.13266
      5 C5          1.0348    1.6402    0.6906 CT        1 <0>       -0.07606
      6 C6          1.0535    0.6222   -1.6054 CT        1 <0>       -0.07606
      7 C7         -0.2532   -0.8651    1.8371 CT        1 <0>       -0.11305
      8 O1          0.6495   -1.8459   -0.1715 OH        1 <0>       -0.57900
      9 H1         -1.4973    1.5013   -1.3521 HC        1 <0>        0.05101
     10 H2         -1.6494    1.5403    0.4141 HC        1 <0>        0.05101
     11 H3         -2.3742   -0.8020    0.1813 HC        1 <0>        0.05491
     12 H4         -1.5449   -0.9810   -1.3760 HC        1 <0>        0.05491
     13 H5          2.0866    1.3673    0.7592 HC        1 <0>        0.03877
     14 H6          0.5858    1.5816    1.6807 HC        1 <0>        0.03877
     15 H7          0.9545    2.6616    0.3222 HC        1 <0>        0.03877
     16 H8          2.1030    0.4043   -1.4300 HC        1 <0>        0.03877
     17 H9          0.9617    1.5767   -2.1156 HC        1 <0>        0.03877
     18 H10         0.6180   -0.1608   -2.2194 HC        1 <0>        0.03877
     19 H11         0.7283   -1.0074    2.2866 HC        1 <0>        0.04349
     20 H12        -0.8801   -1.7242    2.0711 HC        1 <0>        0.04349
     21 H13        -0.7089    0.0324    2.2527 HC        1 <0>        0.04349
     22 H14         0.0933   -2.6188   -0.0209 HO        1 <0>        0.39991
@<TRIPOS>BOND
     1    1    2 1
     2    1    3 1
     3    2    4 1
     4    3    4 1
     5    3    5 1
     6    3    6 1
     7    4    7 1
     8    4    8 1
     9    1    9 1
    10    1   10 1
    11    2   11 1
    12    2   12 1
    13    5   13 1
    14    5   14 1
    15    5   15 1
    16    6   16 1
    17    6   17 1
    18    6   18 1
    19    7   19 1
    20    7   20 1
    21    7   21 1
    22    8   22 1
@<TRIPOS>SUBSTRUCTURE
     1 <0>         1 GROUP 0 A     ****
