@<TRIPOS>MOLECULE
AlkEthOH_r919
   28    28     1     0     0
SMALL
USER_CHARGES

@<TRIPOS>ATOM
      1 C1         -0.4786    0.1828   -2.3401 CT        1 <0>       -0.06621
      2 C2          0.4185    1.1122   -1.5145 CT        1 <0>       -0.07371
      3 C3         -1.0170   -1.0724   -1.6529 CT        1 <0>       -0.10928
      4 C4          1.5347    0.4159   -0.7240 CT        1 <0>       -0.06606
      5 C5         -1.8097   -0.8243   -0.3708 CT        1 <0>        0.13533
      6 C6          1.2915    0.2335    0.7955 CT        1 <0>       -0.06765
      7 C7          0.0778   -0.6727    1.1041 CT        1 <0>        0.14219
      8 C8          1.2189    1.5974    1.4983 CT        1 <0>       -0.08570
      9 C9         -0.1241   -0.9112    2.5988 CT        1 <0>       -0.10595
     10 O1         -1.1122   -0.0612    0.6057 OS        1 <0>       -0.41693
     11 H1         -1.3233    0.7707   -2.7212 HC        1 <0>        0.03415
     12 H2          0.0851   -0.1401   -3.2251 HC        1 <0>        0.03415
     13 H3          0.8904    1.8052   -2.2242 HC        1 <0>        0.04709
     14 H4         -0.1982    1.7467   -0.8710 HC        1 <0>        0.04709
     15 H5         -1.6676   -1.6016   -2.3603 HC        1 <0>        0.04206
     16 H6         -0.1834   -1.7548   -1.4580 HC        1 <0>        0.04206
     17 H7          1.7762   -0.5535   -1.1760 HC        1 <0>        0.03412
     18 H8          2.4466    1.0186   -0.8366 HC        1 <0>        0.03412
     19 H9         -2.7225   -0.2699   -0.6143 H1        1 <0>        0.04251
     20 H10        -2.1236   -1.7763    0.0731 H1        1 <0>        0.04251
     21 H11         2.1834   -0.2725    1.1904 HC        1 <0>        0.03984
     22 H12         0.2481   -1.6545    0.6465 H1        1 <0>        0.03697
     23 H13         0.3493    2.1410    1.1413 HC        1 <0>        0.03697
     24 H14         2.1180    2.1648    1.2776 HC        1 <0>        0.03697
     25 H15         1.1382    1.4464    2.5706 HC        1 <0>        0.03697
     26 H16        -0.2982    0.0374    3.1041 HC        1 <0>        0.04213
     27 H17         0.7623   -1.3823    3.0207 HC        1 <0>        0.04213
     28 H18        -0.9829   -1.5619    2.7563 HC        1 <0>        0.04213
@<TRIPOS>BOND
     1    1    2 1
     2    1    3 1
     3    2    4 1
     4    3    5 1
     5    4    6 1
     6    5   10 1
     7    6    7 1
     8    6    8 1
     9    7    9 1
    10    7   10 1
    11    1   11 1
    12    1   12 1
    13    2   13 1
    14    2   14 1
    15    3   15 1
    16    3   16 1
    17    4   17 1
    18    4   18 1
    19    5   19 1
    20    5   20 1
    21    6   21 1
    22    7   22 1
    23    8   23 1
    24    8   24 1
    25    8   25 1
    26    9   26 1
    27    9   27 1
    28    9   28 1
@<TRIPOS>SUBSTRUCTURE
     1 <0>         1 GROUP 0 A     ****
