@<TRIPOS>MOLECULE
AlkEthOH_c830
   32    31     1     0     0
SMALL
USER_CHARGES

@<TRIPOS>ATOM
      1 C1          0.4853    1.0280   -3.2206 CT        1 <0>       -0.13678
      2 C2          0.0063   -5.0184   -1.4757 CT        1 <0>       -0.12574
      3 C3         -0.6314   -4.1477    0.7740 CT        1 <0>       -0.12574
      4 C4         -2.0732   -2.7519   -3.1285 CT        1 <0>       -0.10009
      5 C5          0.3580   -2.3295   -3.5315 CT        1 <0>       -0.10009
      6 C6         -0.5721   -2.5220   -1.1323 CT        1 <0>       -0.09358
      7 C7          0.0236    0.1053   -2.1028 CT        1 <0>        0.33016
      8 C8         -0.8572   -3.9933   -0.7377 CT        1 <0>        0.15823
      9 C9         -0.8139   -2.0559   -2.5894 CT        1 <0>        0.17633
     10 O1         -0.3079    0.8740   -0.9503 OH        1 <0>       -0.61003
     11 O2         -2.2401   -4.2850   -0.9508 OH        1 <0>       -0.59401
     12 O3         -1.0824   -0.6527   -2.5874 OS        1 <0>       -0.46253
     13 H1         -0.3131    1.7179   -3.5120 HC        1 <0>        0.04892
     14 H2          1.3370    1.6357   -2.8948 HC        1 <0>        0.04892
     15 H3          0.8060    0.4539   -4.0954 HC        1 <0>        0.04892
     16 H4         -0.1339   -4.9322   -2.5597 HC        1 <0>        0.04325
     17 H5         -0.2428   -6.0422   -1.1790 HC        1 <0>        0.04325
     18 H6          1.0737   -4.8494   -1.3036 HC        1 <0>        0.04325
     19 H7         -1.2364   -3.4265    1.3358 HC        1 <0>        0.04325
     20 H8          0.4200   -4.0029    1.0432 HC        1 <0>        0.04325
     21 H9         -0.9426   -5.1416    1.1165 HC        1 <0>        0.04325
     22 H10        -2.9383   -2.5798   -2.4798 HC        1 <0>        0.04535
     23 H11        -2.3158   -2.3935   -4.1357 HC        1 <0>        0.04535
     24 H12        -1.9177   -3.8334   -3.2174 HC        1 <0>        0.04535
     25 H13         1.2703   -1.8419   -3.1669 HC        1 <0>        0.04535
     26 H14         0.1588   -1.9606   -4.5424 HC        1 <0>        0.04535
     27 H15         0.5991   -3.3953   -3.5759 HC        1 <0>        0.04535
     28 H16         0.4823   -2.3186   -0.8962 HC        1 <0>        0.06073
     29 H17        -1.1761   -1.8802   -0.4750 HC        1 <0>        0.06073
     30 H18         0.8447   -0.5700   -1.8364 H2        1 <0>        0.07435
     31 H19        -1.0219    1.4885   -1.1891 HO        1 <0>        0.41350
     32 H20        -2.3871   -5.1764   -0.6015 HO        1 <0>        0.39620
@<TRIPOS>BOND
     1    1    7 1
     2    2    8 1
     3    3    8 1
     4    4    9 1
     5    5    9 1
     6    6    8 1
     7    6    9 1
     8    7   10 1
     9    7   12 1
    10    8   11 1
    11    9   12 1
    12    1   13 1
    13    1   14 1
    14    1   15 1
    15    2   16 1
    16    2   17 1
    17    2   18 1
    18    3   19 1
    19    3   20 1
    20    3   21 1
    21    4   22 1
    22    4   23 1
    23    4   24 1
    24    5   25 1
    25    5   26 1
    26    5   27 1
    27    6   28 1
    28    6   29 1
    29    7   30 1
    30   10   31 1
    31   11   32 1
@<TRIPOS>SUBSTRUCTURE
     1 <0>         1 GROUP 0 A     ****
