@<TRIPOS>MOLECULE
AlkEthOH_c68
   29    28     1     0     0
SMALL
USER_CHARGES

@<TRIPOS>ATOM
      1 C1          2.8436   -1.2687   -1.4107 CT        1 <0>       -0.12928
      2 C2          4.0514    1.2316   -0.0251 CT        1 <0>       -0.10141
      3 C3          2.4074    1.7537   -1.8363 CT        1 <0>       -0.10141
      4 C4          0.5375    1.0488    2.4030 CT        1 <0>       -0.13075
      5 C5          2.4191    2.6791    2.5910 CT        1 <0>       -0.13075
      6 C6          2.1047   -0.3548   -0.4361 CT        1 <0>        0.11747
      7 C7          2.5832    1.1163   -0.4553 CT        1 <0>        0.19802
      8 C8          1.8928    1.4641    1.8260 CT        1 <0>        0.36165
      9 O1          0.7150   -0.3967   -0.7708 OH        1 <0>       -0.59277
     10 O2          2.8517    0.4234    2.0168 OH        1 <0>       -0.63026
     11 O3          1.8020    1.8852    0.4639 OS        1 <0>       -0.42183
     12 H1          2.7736   -0.9094   -2.4407 HC        1 <0>        0.04146
     13 H2          2.4590   -2.2931   -1.3652 HC        1 <0>        0.04146
     14 H3          3.9055   -1.3261   -1.1461 HC        1 <0>        0.04146
     15 H4          4.2172    0.7852    0.9616 HC        1 <0>        0.04627
     16 H5          4.3479    2.2830    0.0670 HC        1 <0>        0.04627
     17 H6          4.7189    0.7461   -0.7445 HC        1 <0>        0.04627
     18 H7          1.3693    1.6911   -2.1791 HC        1 <0>        0.04627
     19 H8          2.6447    2.8237   -1.8031 HC        1 <0>        0.04627
     20 H9          3.0541    1.2815   -2.5828 HC        1 <0>        0.04627
     21 H10         0.1340    0.1786    1.8739 HC        1 <0>        0.04921
     22 H11         0.6137    0.8179    3.4705 HC        1 <0>        0.04921
     23 H12        -0.2038    1.8471    2.2900 HC        1 <0>        0.04921
     24 H13         3.3912    2.9916    2.1910 HC        1 <0>        0.04921
     25 H14         2.5663    2.4520    3.6525 HC        1 <0>        0.04921
     26 H15         1.7416    3.5346    2.4972 HC        1 <0>        0.04921
     27 H16         2.2038   -0.7562    0.5798 H1        1 <0>        0.05880
     28 H17         0.4410   -1.3208   -0.6769 HO        1 <0>        0.39236
     29 H18         2.9382    0.2603    2.9709 HO        1 <0>        0.41290
@<TRIPOS>BOND
     1    1    6 1
     2    2    7 1
     3    3    7 1
     4    4    8 1
     5    5    8 1
     6    6    7 1
     7    6    9 1
     8    7   11 1
     9    8   10 1
    10    8   11 1
    11    1   12 1
    12    1   13 1
    13    1   14 1
    14    2   15 1
    15    2   16 1
    16    2   17 1
    17    3   18 1
    18    3   19 1
    19    3   20 1
    20    4   21 1
    21    4   22 1
    22    4   23 1
    23    5   24 1
    24    5   25 1
    25    5   26 1
    26    6   27 1
    27    9   28 1
    28   10   29 1
@<TRIPOS>SUBSTRUCTURE
     1 <0>         1 GROUP 0 A     ****
