@<TRIPOS>MOLECULE
AlkEthOH_r371
   36    36     1     0     0
SMALL
USER_CHARGES

@<TRIPOS>ATOM
      1 C1          2.6819   -0.3987    0.7904 CT        1 <0>       -0.07579
      2 C2          1.8816   -1.5041    1.4740 CT        1 <0>       -0.07569
      3 C3          1.8983    0.8890    0.5523 CT        1 <0>       -0.07392
      4 C4          0.6393   -1.9467    0.7060 CT        1 <0>       -0.07392
      5 C5          1.0625    0.8826   -0.7397 CT        1 <0>       -0.06775
      6 C6         -0.6011   -1.0748    0.9684 CT        1 <0>       -0.06775
      7 C7         -0.4883    1.0441   -0.6131 CT        1 <0>       -0.03377
      8 C8         -1.2411   -0.3231   -0.2448 CT        1 <0>       -0.03377
      9 C9         -0.8131    2.1762    0.3963 CT        1 <0>       -0.08836
     10 C10        -0.9702    1.5738   -1.9976 CT        1 <0>       -0.08836
     11 C11        -2.7164   -0.0368    0.1688 CT        1 <0>       -0.08836
     12 C12        -1.3335   -1.2814   -1.4610 CT        1 <0>       -0.08836
     13 H1          3.5365   -0.1651    1.4384 HC        1 <0>        0.03606
     14 H2          3.1077   -0.7675   -0.1506 HC        1 <0>        0.03606
     15 H3          2.5461   -2.3715    1.5804 HC        1 <0>        0.03606
     16 H4          1.6146   -1.2013    2.4935 HC        1 <0>        0.03606
     17 H5          1.3210    1.1392    1.4447 HC        1 <0>        0.03925
     18 H6          2.6377    1.6954    0.4508 HC        1 <0>        0.03925
     19 H7          0.8804   -2.0557   -0.3533 HC        1 <0>        0.03925
     20 H8          0.3972   -2.9606    1.0534 HC        1 <0>        0.03925
     21 H9          1.4330    1.7357   -1.3280 HC        1 <0>        0.03793
     22 H10         1.3003    0.0108   -1.3588 HC        1 <0>        0.03793
     23 H11        -1.3616   -1.7654    1.3635 HC        1 <0>        0.03793
     24 H12        -0.4242   -0.3757    1.7930 HC        1 <0>        0.03793
     25 H13        -1.8869    2.2741    0.4715 HC        1 <0>        0.03357
     26 H14        -0.3771    3.0968    0.0346 HC        1 <0>        0.03357
     27 H15        -0.3922    1.9137    1.3567 HC        1 <0>        0.03357
     28 H16        -2.0404    1.7008   -1.9566 HC        1 <0>        0.03357
     29 H17        -0.7015    0.8481   -2.7488 HC        1 <0>        0.03357
     30 H18        -0.4818    2.5166   -2.1870 HC        1 <0>        0.03357
     31 H19        -3.1998    0.4838   -0.6428 HC        1 <0>        0.03357
     32 H20        -2.7055    0.5724    1.0587 HC        1 <0>        0.03357
     33 H21        -3.2030   -0.9804    0.3592 HC        1 <0>        0.03357
     34 H22        -1.7772   -0.7467   -2.2890 HC        1 <0>        0.03357
     35 H23        -1.9486   -2.1273   -1.1882 HC        1 <0>        0.03357
     36 H24        -0.3363   -1.6101   -1.7181 HC        1 <0>        0.03357
@<TRIPOS>BOND
     1    1    2 1
     2    1    3 1
     3    2    4 1
     4    3    5 1
     5    4    6 1
     6    5    7 1
     7    6    8 1
     8    7    8 1
     9    7    9 1
    10    7   10 1
    11    8   11 1
    12    8   12 1
    13    1   13 1
    14    1   14 1
    15    2   15 1
    16    2   16 1
    17    3   17 1
    18    3   18 1
    19    4   19 1
    20    4   20 1
    21    5   21 1
    22    5   22 1
    23    6   23 1
    24    6   24 1
    25    9   25 1
    26    9   26 1
    27    9   27 1
    28   10   28 1
    29   10   29 1
    30   10   30 1
    31   11   31 1
    32   11   32 1
    33   11   33 1
    34   12   34 1
    35   12   35 1
    36   12   36 1
@<TRIPOS>SUBSTRUCTURE
     1 <0>         1 GROUP 0 A     ****
