@<TRIPOS>MOLECULE
AlkEthOH_c576
   26    25     1     0     0
SMALL
USER_CHARGES

@<TRIPOS>ATOM
      1 C1          2.5873    0.0396    1.5085 CT        1 <0>       -0.11077
      2 C2          0.5416    0.4768    2.9140 CT        1 <0>       -0.11077
      3 C3         -2.1037   -2.5339   -1.5155 CT        1 <0>       -0.11077
      4 C4         -1.9236   -2.2994    0.9874 CT        1 <0>       -0.11077
      5 C5          1.0672    0.0250    1.5600 CT        1 <0>        0.14863
      6 C6         -1.9162   -1.5747   -0.3499 CT        1 <0>        0.14863
      7 C7         -0.7045    0.4396    0.0379 CT        1 <0>        0.50882
      8 O1         -1.2239    1.3858   -0.8989 OH        1 <0>       -0.60613
      9 O2          0.5565    0.8844    0.5492 OS        1 <0>       -0.45423
     10 O3         -0.6809   -0.8878   -0.5033 OS        1 <0>       -0.45423
     11 H1          2.9823    1.0381    1.7190 HC        1 <0>        0.04465
     12 H2          3.0001   -0.6619    2.2414 HC        1 <0>        0.04465
     13 H3          2.9519   -0.2816    0.5264 HC        1 <0>        0.04465
     14 H4          0.8879    1.4857    3.1581 HC        1 <0>        0.04465
     15 H5          0.8764   -0.2080    3.7006 HC        1 <0>        0.04465
     16 H6         -0.5537    0.4678    2.9346 HC        1 <0>        0.04465
     17 H7         -1.3211   -3.2986   -1.5303 HC        1 <0>        0.04465
     18 H8         -3.0774   -3.0307   -1.4472 HC        1 <0>        0.04465
     19 H9         -2.0899   -1.9998   -2.4720 HC        1 <0>        0.04465
     20 H10        -1.1368   -3.0586    1.0323 HC        1 <0>        0.04465
     21 H11        -2.8905   -2.7873    1.1511 HC        1 <0>        0.04465
     22 H12        -1.7811   -1.5977    1.8167 HC        1 <0>        0.04465
     23 H13         0.7040   -0.9854    1.3456 H1        1 <0>        0.04686
     24 H14        -2.7129   -0.8237   -0.3630 H1        1 <0>        0.04686
     25 H15        -1.4167    0.4133    0.8716 H3        1 <0>        0.08808
     26 H16        -1.3348    2.2314   -0.4322 HO        1 <0>        0.43399
@<TRIPOS>BOND
     1    1    5 1
     2    2    5 1
     3    3    6 1
     4    4    6 1
     5    5    9 1
     6    6   10 1
     7    7    8 1
     8    7    9 1
     9    7   10 1
    10    1   11 1
    11    1   12 1
    12    1   13 1
    13    2   14 1
    14    2   15 1
    15    2   16 1
    16    3   17 1
    17    3   18 1
    18    3   19 1
    19    4   20 1
    20    4   21 1
    21    4   22 1
    22    5   23 1
    23    6   24 1
    24    7   25 1
    25    8   26 1
@<TRIPOS>SUBSTRUCTURE
     1 <0>         1 GROUP 0 A     ****
