@<TRIPOS>MOLECULE
AlkEthOH_r185
   29    29     1     0     0
SMALL
USER_CHARGES

@<TRIPOS>ATOM
      1 C1         -1.3362    1.5328    1.3974 CT        1 <0>       -0.07209
      2 C2         -1.7449    0.0720    1.1903 CT        1 <0>       -0.07146
      3 C3         -1.0952    2.3121    0.0998 CT        1 <0>       -0.09780
      4 C4         -0.6266   -0.9466    1.4201 CT        1 <0>       -0.10217
      5 C5          0.0742    1.8080   -0.7371 CT        1 <0>        0.13132
      6 C6          0.7072   -0.7221    0.6914 CT        1 <0>        0.12346
      7 C7          0.6290   -0.5644   -0.8509 CT        1 <0>        0.16731
      8 C8          0.0201   -1.8181   -1.5055 CT        1 <0>       -0.09877
      9 C9          2.0308   -0.3633   -1.4586 CT        1 <0>       -0.09877
     10 O1         -0.2243    0.5160   -1.2501 OS        1 <0>       -0.42086
     11 O2          1.5658   -1.8263    1.0033 OH        1 <0>       -0.60371
     12 H1         -2.1569    2.0387    1.9224 HC        1 <0>        0.03596
     13 H2         -0.4644    1.6108    2.0567 HC        1 <0>        0.03596
     14 H3         -2.5369   -0.1623    1.9139 HC        1 <0>        0.05014
     15 H4         -2.2036   -0.0743    0.2061 HC        1 <0>        0.05014
     16 H5         -2.0116    2.2801   -0.5025 HC        1 <0>        0.04784
     17 H6         -0.9155    3.3631    0.3556 HC        1 <0>        0.04784
     18 H7         -0.4123   -0.9853    2.4978 HC        1 <0>        0.04144
     19 H8         -1.0099   -1.9489    1.1886 HC        1 <0>        0.04144
     20 H9          0.1989    2.4705   -1.6006 H1        1 <0>        0.03962
     21 H10         1.0075    1.8503   -0.1685 H1        1 <0>        0.03962
     22 H11         1.1844    0.1613    1.1301 H1        1 <0>        0.03073
     23 H12        -0.0202   -1.6756   -2.5800 HC        1 <0>        0.04713
     24 H13        -0.9814   -1.9718   -1.1187 HC        1 <0>        0.04713
     25 H14         0.6388   -2.6781   -1.2730 HC        1 <0>        0.04713
     26 H15         1.9398   -0.2569   -2.5337 HC        1 <0>        0.04713
     27 H16         2.6459   -1.2250   -1.2253 HC        1 <0>        0.04713
     28 H17         2.4756    0.5310   -1.0370 HC        1 <0>        0.04713
     29 H18         1.6740   -1.8192    1.9648 HO        1 <0>        0.40003
@<TRIPOS>BOND
     1    1    2 1
     2    1    3 1
     3    2    4 1
     4    3    5 1
     5    4    6 1
     6    5   10 1
     7    6    7 1
     8    6   11 1
     9    7    8 1
    10    7    9 1
    11    7   10 1
    12    1   12 1
    13    1   13 1
    14    2   14 1
    15    2   15 1
    16    3   16 1
    17    3   17 1
    18    4   18 1
    19    4   19 1
    20    5   20 1
    21    5   21 1
    22    6   22 1
    23    8   23 1
    24    8   24 1
    25    8   25 1
    26    9   26 1
    27    9   27 1
    28    9   28 1
    29   11   29 1
@<TRIPOS>SUBSTRUCTURE
     1 <0>         1 GROUP 0 A     ****
