@<TRIPOS>MOLECULE
AlkEthOH_r11
   21    21     1     0     0
SMALL
USER_CHARGES

@<TRIPOS>ATOM
      1 C1         -0.3509   -0.5275   -1.9697 CT        1 <0>       -0.11035
      2 C2          0.9654   -0.5094   -1.1937 CT        1 <0>       -0.10209
      3 C3         -1.5642   -0.9940   -1.1764 CT        1 <0>        0.12679
      4 C4         -0.9441   -0.6776    1.0956 CT        1 <0>        0.09830
      5 C5          0.9910    0.5653   -0.1060 CT        1 <0>        0.15047
      6 C6          0.3256    0.1572    1.2118 CT        1 <0>        0.12011
      7 O1         -1.7683   -0.2443    0.0170 OS        1 <0>       -0.40074
      8 O2          2.3565    0.8717    0.2027 OH        1 <0>       -0.60094
      9 O3         -0.0111    1.3588    1.9187 OH        1 <0>       -0.58852
     10 H1         -0.5440    0.4834   -2.3503 HC        1 <0>        0.05015
     11 H2         -0.2382   -1.1764   -2.8465 HC        1 <0>        0.05015
     12 H3          1.1834   -1.4976   -0.7704 HC        1 <0>        0.04928
     13 H4          1.7749   -0.3105   -1.9086 HC        1 <0>        0.04928
     14 H5         -2.4569   -0.8529   -1.7958 H1        1 <0>        0.04622
     15 H6         -1.5076   -2.0671   -0.9577 H1        1 <0>        0.04622
     16 H7         -0.6990   -1.7418    0.9978 H1        1 <0>        0.04963
     17 H8         -1.5413   -0.5718    2.0085 H1        1 <0>        0.04963
     18 H9          0.5500    1.4987   -0.4837 H1        1 <0>        0.06466
     19 H10         1.0370   -0.3779    1.8561 H1        1 <0>        0.05275
     20 H11         2.7522    1.1904   -0.6206 HO        1 <0>        0.40061
     21 H12        -0.3402    1.0765    2.7833 HO        1 <0>        0.39839
@<TRIPOS>BOND
     1    1    2 1
     2    1    3 1
     3    2    5 1
     4    3    7 1
     5    4    6 1
     6    4    7 1
     7    5    6 1
     8    5    8 1
     9    6    9 1
    10    1   10 1
    11    1   11 1
    12    2   12 1
    13    2   13 1
    14    3   14 1
    15    3   15 1
    16    4   16 1
    17    4   17 1
    18    5   18 1
    19    6   19 1
    20    8   20 1
    21    9   21 1
@<TRIPOS>SUBSTRUCTURE
     1 <0>         1 GROUP 0 A     ****
