@<TRIPOS>MOLECULE
AlkEthOH_r640
   28    28     1     0     0
SMALL
USER_CHARGES

@<TRIPOS>ATOM
      1 C1          1.7278    1.9030   -0.9423 CT        1 <0>       -0.11303
      2 C2          2.2446    1.2375    0.3384 CT        1 <0>        0.13730
      3 C3          0.6298    1.1052   -1.6403 CT        1 <0>        0.14762
      4 C4          1.0598   -0.6947    1.0941 CT        1 <0>        0.11367
      5 C5         -1.3945    0.0490   -0.9134 CT        1 <0>        0.53315
      6 C6         -0.4127   -1.1565    1.0171 CT        1 <0>        0.17030
      7 C7         -0.4553   -2.6455    1.4072 CT        1 <0>       -0.11050
      8 C8         -1.3319   -0.3815    1.9695 CT        1 <0>       -0.11050
      9 O1          1.1653    0.7298    1.1189 OS        1 <0>       -0.40950
     10 O2         -0.5487    1.1941   -0.8405 OS        1 <0>       -0.44004
     11 O3         -0.8519   -1.1488   -0.3544 OS        1 <0>       -0.50011
     12 O4         -1.8320   -0.1917   -2.2544 OH        1 <0>       -0.62475
     13 H1          1.3193    2.8849   -0.6713 HC        1 <0>        0.05803
     14 H2          2.5692    2.0722   -1.6228 HC        1 <0>        0.05803
     15 H3          2.9814    0.4604    0.1031 H1        1 <0>        0.03937
     16 H4          2.7642    1.9895    0.9423 H1        1 <0>        0.03937
     17 H5          0.4082    1.5491   -2.6164 H1        1 <0>        0.04036
     18 H6          0.9477    0.0684   -1.7957 H1        1 <0>        0.04036
     19 H7          1.5280   -1.0533    2.0177 H1        1 <0>        0.04315
     20 H8          1.6106   -1.1215    0.2465 H1        1 <0>        0.04315
     21 H9         -2.2986    0.2987   -0.3489 H3        1 <0>        0.10600
     22 H10        -1.4804   -2.9969    1.3616 HC        1 <0>        0.05105
     23 H11        -0.0730   -2.7610    2.4156 HC        1 <0>        0.05105
     24 H12         0.1577   -3.2130    0.7155 HC        1 <0>        0.05105
     25 H13        -2.3496   -0.7493    1.8706 HC        1 <0>        0.05105
     26 H14        -1.3036    0.6757    1.7203 HC        1 <0>        0.05105
     27 H15        -0.9945   -0.5213    2.9929 HC        1 <0>        0.05105
     28 H16        -2.3958   -0.9779   -2.2179 HO        1 <0>        0.43227
@<TRIPOS>BOND
     1    1    2 1
     2    1    3 1
     3    2    9 1
     4    3   10 1
     5    4    6 1
     6    4    9 1
     7    5   10 1
     8    5   11 1
     9    5   12 1
    10    6    7 1
    11    6    8 1
    12    6   11 1
    13    1   13 1
    14    1   14 1
    15    2   15 1
    16    2   16 1
    17    3   17 1
    18    3   18 1
    19    4   19 1
    20    4   20 1
    21    5   21 1
    22    7   22 1
    23    7   23 1
    24    7   24 1
    25    8   25 1
    26    8   26 1
    27    8   27 1
    28   12   28 1
@<TRIPOS>SUBSTRUCTURE
     1 <0>         1 GROUP 0 A     ****
