@<TRIPOS>MOLECULE
AlkEthOH_c755
   20    19     1     0     0
SMALL
USER_CHARGES

@<TRIPOS>ATOM
      1 C1          0.3872    0.7577   -0.5495 CT        1 <0>       -0.12948
      2 C2          1.4087   -0.7635   -2.2846 CT        1 <0>       -0.07679
      3 C3          1.5600   -1.0781   -3.7687 CT        1 <0>        0.13454
      4 C4          2.5226   -2.6245   -5.2734 CT        1 <0>        0.32955
      5 C5          0.5699    0.4916   -2.0374 CT        1 <0>        0.13972
      6 O1          3.2816   -1.6708   -6.0025 OH        1 <0>       -0.62749
      7 O2         -0.7144    0.3479   -2.6377 OH        1 <0>       -0.60520
      8 O3          2.3347   -2.2614   -3.9093 OS        1 <0>       -0.41909
      9 H1         -0.0935   -0.0891   -0.0503 HC        1 <0>        0.04410
     10 H2         -0.2196    1.6542   -0.3814 HC        1 <0>        0.04410
     11 H3          1.3564    0.9402   -0.0731 HC        1 <0>        0.04410
     12 H4          2.4032   -0.6500   -1.8355 HC        1 <0>        0.06094
     13 H5          0.9485   -1.6308   -1.7934 HC        1 <0>        0.06094
     14 H6          0.5865   -1.2453   -4.2398 H1        1 <0>        0.04437
     15 H7          2.0731   -0.2632   -4.2891 H1        1 <0>        0.04437
     16 H8          1.5635   -2.8064   -5.7722 H2        1 <0>        0.03596
     17 H9          3.0852   -3.5625   -5.2834 H2        1 <0>        0.03596
     18 H10         1.0526    1.3593   -2.5002 H1        1 <0>        0.03245
     19 H11         3.3577   -1.9997   -6.9141 HO        1 <0>        0.40832
     20 H12        -1.1857    1.1817   -2.4851 HO        1 <0>        0.39863
@<TRIPOS>BOND
     1    1    5 1
     2    2    3 1
     3    2    5 1
     4    3    8 1
     5    4    6 1
     6    4    8 1
     7    5    7 1
     8    1    9 1
     9    1   10 1
    10    1   11 1
    11    2   12 1
    12    2   13 1
    13    3   14 1
    14    3   15 1
    15    4   16 1
    16    4   17 1
    17    5   18 1
    18    6   19 1
    19    7   20 1
@<TRIPOS>SUBSTRUCTURE
     1 <0>         1 GROUP 0 A     ****
