@<TRIPOS>MOLECULE
AlkEthOH_c678
   31    30     1     0     0
SMALL
USER_CHARGES

@<TRIPOS>ATOM
      1 C1          2.5842    3.3974    0.1377 CT        1 <0>       -0.12973
      2 C2         -2.4172   -0.9768   -0.9340 CT        1 <0>       -0.08826
      3 C3         -0.7967   -2.7798   -0.3030 CT        1 <0>       -0.08826
      4 C4         -2.5005   -1.9984    1.3427 CT        1 <0>       -0.08826
      5 C5          0.9918    1.4586    0.3900 CT        1 <0>       -0.10590
      6 C6         -0.6051   -0.4586    0.7856 CT        1 <0>       -0.09996
      7 C7          2.0752    2.1033   -0.4850 CT        1 <0>        0.14134
      8 C8          0.4493    0.1301   -0.1700 CT        1 <0>        0.14015
      9 C9         -1.5577   -1.5466    0.2077 CT        1 <0>       -0.04904
     10 O1          1.5282    2.3946   -1.7676 OH        1 <0>       -0.60159
     11 O2          1.5262   -0.7927   -0.2971 OH        1 <0>       -0.59483
     12 H1          1.7702    4.1126    0.2905 HC        1 <0>        0.04199
     13 H2          3.3487    3.8629   -0.4940 HC        1 <0>        0.04199
     14 H3          3.0564    3.1967    1.1055 HC        1 <0>        0.04199
     15 H4         -2.9759   -0.0936   -0.6054 HC        1 <0>        0.03585
     16 H5         -1.8086   -0.6888   -1.7970 HC        1 <0>        0.03585
     17 H6         -3.1446   -1.7174   -1.2863 HC        1 <0>        0.03585
     18 H7         -0.1719   -3.2140    0.4851 HC        1 <0>        0.03585
     19 H8         -1.4908   -3.5581   -0.6412 HC        1 <0>        0.03585
     20 H9         -0.1547   -2.5374   -1.1558 HC        1 <0>        0.03585
     21 H10        -1.9351   -2.4141    2.1844 HC        1 <0>        0.03585
     22 H11        -3.1982   -2.7701    0.9982 HC        1 <0>        0.03585
     23 H12        -3.0955   -1.1595    1.7212 HC        1 <0>        0.03585
     24 H13         0.1532    2.1593    0.4917 HC        1 <0>        0.05098
     25 H14         1.4086    1.2870    1.3906 HC        1 <0>        0.05098
     26 H15        -1.2260    0.3632    1.1676 HC        1 <0>        0.04112
     27 H16        -0.0835   -0.8865    1.6531 HC        1 <0>        0.04112
     28 H17         2.9160    1.4153   -0.6219 H1        1 <0>        0.04389
     29 H18         0.0136    0.2945   -1.1599 H1        1 <0>        0.09805
     30 H19         2.2466    2.7783   -2.2944 HO        1 <0>        0.39924
     31 H20         1.8949   -0.9131    0.5921 HO        1 <0>        0.39034
@<TRIPOS>BOND
     1    1    7 1
     2    2    9 1
     3    3    9 1
     4    4    9 1
     5    5    7 1
     6    5    8 1
     7    6    8 1
     8    6    9 1
     9    7   10 1
    10    8   11 1
    11    1   12 1
    12    1   13 1
    13    1   14 1
    14    2   15 1
    15    2   16 1
    16    2   17 1
    17    3   18 1
    18    3   19 1
    19    3   20 1
    20    4   21 1
    21    4   22 1
    22    4   23 1
    23    5   24 1
    24    5   25 1
    25    6   26 1
    26    6   27 1
    27    7   28 1
    28    8   29 1
    29   10   30 1
    30   11   31 1
@<TRIPOS>SUBSTRUCTURE
     1 <0>         1 GROUP 0 A     ****
