@<TRIPOS>MOLECULE
AlkEthOH_c539
   24    23     1     0     0
SMALL
USER_CHARGES

@<TRIPOS>ATOM
      1 C1          3.5972    0.2030   -0.1276 CT        1 <0>       -0.10571
      2 C2          2.6088   -1.0657   -2.0680 CT        1 <0>       -0.10571
      3 C3         -0.4956   -1.2446    1.2676 CT        1 <0>       -0.10977
      4 C4         -1.6819    0.6186   -0.9031 CT        1 <0>        0.34778
      5 C5          2.3207   -0.2066   -0.8462 CT        1 <0>        0.14979
      6 C6          0.2155   -0.3009    0.2882 CT        1 <0>        0.53456
      7 O1         -1.3541    1.9673   -1.2060 OH        1 <0>       -0.60771
      8 O2          0.3995    0.9733    0.9122 OH        1 <0>       -0.67193
      9 O3         -0.5477   -0.2402   -0.9277 OS        1 <0>       -0.46534
     10 O4          1.4907   -0.9326    0.0515 OS        1 <0>       -0.45090
     11 H1          4.1721   -0.6720    0.1906 HC        1 <0>        0.04264
     12 H2          4.2250    0.8143   -0.7848 HC        1 <0>        0.04264
     13 H3          3.3749    0.8155    0.7532 HC        1 <0>        0.04264
     14 H4          3.1602   -1.9710   -1.7961 HC        1 <0>        0.04264
     15 H5          3.1989   -0.5028   -2.7991 HC        1 <0>        0.04264
     16 H6          1.6809   -1.3587   -2.5714 HC        1 <0>        0.04264
     17 H7         -0.6503   -2.2306    0.8156 HC        1 <0>        0.06113
     18 H8         -1.4718   -0.8589    1.5766 HC        1 <0>        0.06113
     19 H9          0.1015   -1.3822    2.1766 HC        1 <0>        0.06113
     20 H10        -2.2270    0.5686    0.0442 H2        1 <0>        0.05986
     21 H11        -2.3601    0.2729   -1.6885 H2        1 <0>        0.05986
     22 H12         1.7695    0.6890   -1.1510 H1        1 <0>        0.07232
     23 H13        -2.1810    2.4771   -1.1665 HO        1 <0>        0.41830
     24 H14         0.9399    0.8616    1.7116 HO        1 <0>        0.43537
@<TRIPOS>BOND
     1    1    5 1
     2    2    5 1
     3    3    6 1
     4    4    7 1
     5    4    9 1
     6    5   10 1
     7    6    8 1
     8    6    9 1
     9    6   10 1
    10    1   11 1
    11    1   12 1
    12    1   13 1
    13    2   14 1
    14    2   15 1
    15    2   16 1
    16    3   17 1
    17    3   18 1
    18    3   19 1
    19    4   20 1
    20    4   21 1
    21    5   22 1
    22    7   23 1
    23    8   24 1
@<TRIPOS>SUBSTRUCTURE
     1 <0>         1 GROUP 0 A     ****
