@<TRIPOS>MOLECULE
AlkEthOH_c966
   21    20     1     0     0
SMALL
USER_CHARGES

@<TRIPOS>ATOM
      1 C1          0.8526   -0.4922    0.3786 CT        1 <0>       -0.09078
      2 C2         -0.1338   -4.2174    0.8857 CT        1 <0>       -0.08917
      3 C3         -2.7890   -2.8275    1.5798 CT        1 <0>       -0.13066
      4 C4          0.8177   -2.0057    0.2199 CT        1 <0>       -0.07755
      5 C5         -0.2769   -2.6987    1.0627 CT        1 <0>       -0.05312
      6 C6         -1.6988   -2.1983    0.7179 CT        1 <0>        0.14109
      7 O1         -1.9863   -2.4625   -0.6532 OH        1 <0>       -0.59882
      8 H1         -0.1118   -0.0633    0.0870 HC        1 <0>        0.03133
      9 H2          1.0398   -0.2001    1.4158 HC        1 <0>        0.03133
     10 H3          1.6261   -0.0470   -0.2548 HC        1 <0>        0.03133
     11 H4         -0.3165   -4.5050   -0.1555 HC        1 <0>        0.03762
     12 H5         -0.8446   -4.7645    1.5139 HC        1 <0>        0.03762
     13 H6          0.8762   -4.5549    1.1365 HC        1 <0>        0.03762
     14 H7         -2.7960   -3.9172    1.4823 HC        1 <0>        0.04256
     15 H8         -2.6242   -2.5780    2.6340 HC        1 <0>        0.04256
     16 H9         -3.7799   -2.4362    1.3283 HC        1 <0>        0.04256
     17 H10         1.7980   -2.3968    0.5207 HC        1 <0>        0.04683
     18 H11         0.6974   -2.2529   -0.8418 HC        1 <0>        0.04683
     19 H12        -0.0839   -2.4711    2.1197 HC        1 <0>        0.04465
     20 H13        -1.7457   -1.1134    0.8605 H1        1 <0>        0.02983
     21 H14        -2.8513   -2.0639   -0.8354 HO        1 <0>        0.39634
@<TRIPOS>BOND
     1    1    4 1
     2    2    5 1
     3    3    6 1
     4    4    5 1
     5    5    6 1
     6    6    7 1
     7    1    8 1
     8    1    9 1
     9    1   10 1
    10    2   11 1
    11    2   12 1
    12    2   13 1
    13    3   14 1
    14    3   15 1
    15    3   16 1
    16    4   17 1
    17    4   18 1
    18    5   19 1
    19    6   20 1
    20    7   21 1
@<TRIPOS>SUBSTRUCTURE
     1 <0>         1 GROUP 0 A     ****
