@<TRIPOS>MOLECULE
AlkEthOH_r821
   30    30     1     0     0
SMALL
USER_CHARGES

@<TRIPOS>ATOM
      1 C1         -0.0416    1.4626   -2.2443 CT        1 <0>       -0.11066
      2 C2         -0.5403   -1.1209    0.8519 CT        1 <0>       -0.12126
      3 C3         -0.2171    2.3678   -1.0174 CT        1 <0>        0.14042
      4 C4         -0.0245   -0.0377   -1.9621 CT        1 <0>        0.15298
      5 C5          0.0068    1.3956    1.1410 CT        1 <0>        0.13321
      6 C6         -0.3968    0.0791    1.8184 CT        1 <0>       -0.05812
      7 C7          0.6414   -1.4294   -0.1029 CT        1 <0>        0.35506
      8 C8         -1.7134    0.2629    2.5846 CT        1 <0>       -0.09080
      9 C9          1.9135   -1.7337    0.6939 CT        1 <0>       -0.11446
     10 O1         -0.8695    1.6888    0.0523 OS        1 <0>       -0.42279
     11 O2          0.9519   -0.3320   -0.9696 OS        1 <0>       -0.42041
     12 O3          0.2897   -2.6032   -0.8458 OH        1 <0>       -0.62513
     13 H1         -0.8556    1.6639   -2.9518 HC        1 <0>        0.04928
     14 H2          0.8833    1.7579   -2.7547 HC        1 <0>        0.04928
     15 H3         -0.7357   -2.0223    1.4511 HC        1 <0>        0.05516
     16 H4         -1.4581   -0.9914    0.2652 HC        1 <0>        0.05516
     17 H5          0.7487    2.7845   -0.7057 H1        1 <0>        0.04066
     18 H6         -0.8425    3.2234   -1.2956 H1        1 <0>        0.04066
     19 H7         -1.0286   -0.3607   -1.6734 H1        1 <0>        0.04644
     20 H8          0.2411   -0.5820   -2.8750 H1        1 <0>        0.04644
     21 H9         -0.0469    2.2282    1.8519 H1        1 <0>        0.03862
     22 H10         1.0511    1.3262    0.8163 H1        1 <0>        0.03862
     23 H11         0.3737   -0.1623    2.5614 HC        1 <0>        0.04386
     24 H12        -2.5087    0.5046    1.8851 HC        1 <0>        0.03863
     25 H13        -1.6046    1.0710    3.3025 HC        1 <0>        0.03863
     26 H14        -1.9587   -0.6567    3.1085 HC        1 <0>        0.03863
     27 H15         2.7306   -1.9474    0.0091 HC        1 <0>        0.05118
     28 H16         1.7453   -2.5964    1.3340 HC        1 <0>        0.05118
     29 H17         2.1735   -0.8748    1.3079 HC        1 <0>        0.05118
     30 H18         0.1559   -3.3043   -0.1925 HO        1 <0>        0.40835
@<TRIPOS>BOND
     1    1    3 1
     2    1    4 1
     3    2    6 1
     4    2    7 1
     5    3   10 1
     6    4   11 1
     7    5    6 1
     8    5   10 1
     9    6    8 1
    10    7    9 1
    11    7   11 1
    12    7   12 1
    13    1   13 1
    14    1   14 1
    15    2   15 1
    16    2   16 1
    17    3   17 1
    18    3   18 1
    19    4   19 1
    20    4   20 1
    21    5   21 1
    22    5   22 1
    23    6   23 1
    24    8   24 1
    25    8   25 1
    26    8   26 1
    27    9   27 1
    28    9   28 1
    29    9   29 1
    30   12   30 1
@<TRIPOS>SUBSTRUCTURE
     1 <0>         1 GROUP 0 A     ****
