@<TRIPOS>MOLECULE
AlkEthOH_r1004
   28    28     1     0     0
SMALL
USER_CHARGES

@<TRIPOS>ATOM
      1 C1         -1.3398    0.3701    1.3673 CT        1 <0>       -0.10847
      2 C2          1.0010   -0.3397    0.6557 CT        1 <0>       -0.06398
      3 C3         -2.0808    0.7403    0.0851 CT        1 <0>        0.13184
      4 C4         -0.0687    1.1494   -1.1434 CT        1 <0>        0.13807
      5 C5         -0.3581   -0.8031    1.2226 CT        1 <0>       -0.05780
      6 C6          1.0314    0.1174   -0.8250 CT        1 <0>       -0.07720
      7 C7         -0.1267   -1.4387    2.6004 CT        1 <0>       -0.09198
      8 C8          2.4024    0.7705   -1.0962 CT        1 <0>       -0.08517
      9 C9          0.8932   -1.1090   -1.7505 CT        1 <0>       -0.08517
     10 O1         -1.3538    0.5428   -1.1160 OS        1 <0>       -0.41656
     11 H1         -0.7990    1.2519    1.7351 HC        1 <0>        0.04366
     12 H2         -2.0956    0.1535    2.1331 HC        1 <0>        0.04366
     13 H3          1.3738    0.4793    1.2873 HC        1 <0>        0.03819
     14 H4          1.7295   -1.1536    0.7777 HC        1 <0>        0.03819
     15 H5         -2.9800    0.1192    0.0047 H1        1 <0>        0.04234
     16 H6         -2.4250    1.7801    0.1323 H1        1 <0>        0.04234
     17 H7         -0.0202    2.0233   -0.4817 H1        1 <0>        0.04438
     18 H8          0.0707    1.5244   -2.1645 H1        1 <0>        0.04438
     19 H9         -0.7942   -1.5758    0.5792 HC        1 <0>        0.06215
     20 H10         0.3066   -0.7016    3.2703 HC        1 <0>        0.03341
     21 H11         0.5516   -2.2811    2.5005 HC        1 <0>        0.03341
     22 H12        -1.0750   -1.7823    3.0038 HC        1 <0>        0.03341
     23 H13         2.4409    1.0965   -2.1289 HC        1 <0>        0.03615
     24 H14         3.1837    0.0430   -0.9101 HC        1 <0>        0.03615
     25 H15         2.5258    1.6212   -0.4362 HC        1 <0>        0.03615
     26 H16         0.9157   -0.7781   -2.7821 HC        1 <0>        0.03615
     27 H17        -0.0479   -1.6045   -1.5429 HC        1 <0>        0.03615
     28 H18         1.7167   -1.7881   -1.5631 HC        1 <0>        0.03615
@<TRIPOS>BOND
     1    1    3 1
     2    1    5 1
     3    2    5 1
     4    2    6 1
     5    3   10 1
     6    4    6 1
     7    4   10 1
     8    5    7 1
     9    6    8 1
    10    6    9 1
    11    1   11 1
    12    1   12 1
    13    2   13 1
    14    2   14 1
    15    3   15 1
    16    3   16 1
    17    4   17 1
    18    4   18 1
    19    5   19 1
    20    7   20 1
    21    7   21 1
    22    7   22 1
    23    8   23 1
    24    8   24 1
    25    8   25 1
    26    9   26 1
    27    9   27 1
    28    9   28 1
@<TRIPOS>SUBSTRUCTURE
     1 <0>         1 GROUP 0 A     ****
