@<TRIPOS>MOLECULE
AlkEthOH_c367
   33    32     1     0     0
SMALL
USER_CHARGES

@<TRIPOS>ATOM
      1 C1         -0.3874   -2.8339   -0.3476 CT        1 <0>       -0.09198
      2 C2          2.0974   -2.6735   -0.3323 CT        1 <0>       -0.09198
      3 C3         -1.6847    0.0816   -0.7665 CT        1 <0>       -0.09323
      4 C4         -0.9743   -0.2233    1.6062 CT        1 <0>       -0.09323
      5 C5          0.3132    2.4242   -1.0665 CT        1 <0>       -0.12415
      6 C6         -1.2510    2.7259    0.8480 CT        1 <0>       -0.12415
      7 C7          0.7364   -0.5459   -0.2364 CT        1 <0>       -0.06648
      8 C8          0.8046   -2.0345    0.1899 CT        1 <0>       -0.06402
      9 C9         -0.5141    0.2914    0.2220 CT        1 <0>       -0.02039
     10 C10        -0.1292    1.8345    0.2852 CT        1 <0>        0.15422
     11 O1          0.9923    1.9714    1.1753 OH        1 <0>       -0.60079
     12 H1         -0.4346   -2.7665   -1.4400 HC        1 <0>        0.03216
     13 H2         -0.3196   -3.8929   -0.0884 HC        1 <0>        0.03216
     14 H3         -1.3336   -2.4516    0.0511 HC        1 <0>        0.03216
     15 H4          2.1471   -2.6162   -1.4249 HC        1 <0>        0.03216
     16 H5          2.1467   -3.7317   -0.0540 HC        1 <0>        0.03216
     17 H6          2.9822   -2.1722    0.0750 HC        1 <0>        0.03216
     18 H7         -1.4319    0.4248   -1.7748 HC        1 <0>        0.03797
     19 H8         -1.9427   -0.9767   -0.8721 HC        1 <0>        0.03797
     20 H9         -2.5841    0.6160   -0.4440 HC        1 <0>        0.03797
     21 H10        -0.1929   -0.1070    2.3633 HC        1 <0>        0.03797
     22 H11        -1.8437    0.3304    1.9753 HC        1 <0>        0.03797
     23 H12        -1.2583   -1.2796    1.5725 HC        1 <0>        0.03797
     24 H13         1.1134    1.8365   -1.5258 HC        1 <0>        0.04208
     25 H14        -0.5160    2.5143   -1.7732 HC        1 <0>        0.04208
     26 H15         0.7377    3.4265   -0.9285 HC        1 <0>        0.04208
     27 H16        -1.6196    2.3686    1.8133 HC        1 <0>        0.04208
     28 H17        -2.1034    2.7553    0.1578 HC        1 <0>        0.04208
     29 H18        -0.9301    3.7672    0.9498 HC        1 <0>        0.04208
     30 H19         0.8319   -0.4936   -1.3284 HC        1 <0>        0.04831
     31 H20         1.6268   -0.0423    0.1612 HC        1 <0>        0.04831
     32 H21         0.8188   -2.1252    1.2803 HC        1 <0>        0.05028
     33 H22         1.1745    2.9188    1.2253 HO        1 <0>        0.39602
@<TRIPOS>BOND
     1    1    8 1
     2    2    8 1
     3    3    9 1
     4    4    9 1
     5    5   10 1
     6    6   10 1
     7    7    8 1
     8    7    9 1
     9    9   10 1
    10   10   11 1
    11    1   12 1
    12    1   13 1
    13    1   14 1
    14    2   15 1
    15    2   16 1
    16    2   17 1
    17    3   18 1
    18    3   19 1
    19    3   20 1
    20    4   21 1
    21    4   22 1
    22    4   23 1
    23    5   24 1
    24    5   25 1
    25    5   26 1
    26    6   27 1
    27    6   28 1
    28    6   29 1
    29    7   30 1
    30    7   31 1
    31    8   32 1
    32   11   33 1
@<TRIPOS>SUBSTRUCTURE
     1 <0>         1 GROUP 0 A     ****
