@<TRIPOS>MOLECULE
AlkEthOH_c653
   27    26     1     0     0
SMALL
USER_CHARGES

@<TRIPOS>ATOM
      1 C1          2.1711   -2.9908   -0.6686 CT        1 <0>       -0.12709
      2 C2         -2.6465    0.1118    2.0170 CT        1 <0>       -0.12594
      3 C3          0.5002    1.7712   -0.4418 CT        1 <0>       -0.11507
      4 C4          1.3336   -0.6247   -0.4410 CT        1 <0>       -0.09884
      5 C5          1.5348   -1.9715    0.2702 CT        1 <0>        0.14231
      6 C6         -1.3596    0.8524    1.6866 CT        1 <0>        0.34019
      7 C7          0.6722    0.4987    0.3950 CT        1 <0>        0.36532
      8 O1          2.3854   -1.8038    1.3991 OH        1 <0>       -0.61256
      9 O2         -0.7170    1.1495    2.9210 OH        1 <0>       -0.60744
     10 O3          1.5841    0.7507    1.4701 OH        1 <0>       -0.60845
     11 O4         -0.5841   -0.0104    0.8582 OS        1 <0>       -0.49522
     12 H1          3.1357   -2.6375   -1.0453 HC        1 <0>        0.04350
     13 H2          2.3201   -3.9509   -0.1623 HC        1 <0>        0.04350
     14 H3          1.5149   -3.1855   -1.5239 HC        1 <0>        0.04350
     15 H4         -2.4358   -0.8307    2.5325 HC        1 <0>        0.05128
     16 H5         -3.1990   -0.1316    1.1020 HC        1 <0>        0.05128
     17 H6         -3.3023    0.7266    2.6418 HC        1 <0>        0.05128
     18 H7          0.0325    2.5679    0.1470 HC        1 <0>        0.05514
     19 H8          1.4554    2.1269   -0.8400 HC        1 <0>        0.05514
     20 H9         -0.1617    1.5998   -1.2975 HC        1 <0>        0.05514
     21 H10         2.3171   -0.2568   -0.7673 HC        1 <0>        0.06392
     22 H11         0.7481   -0.7808   -1.3572 HC        1 <0>        0.06392
     23 H12         0.5755   -2.3641    0.6221 H1        1 <0>        0.05012
     24 H13        -1.6176    1.7844    1.1743 H2        1 <0>        0.07365
     25 H14         2.4607   -2.6737    1.8222 HO        1 <0>        0.40368
     26 H15        -1.3262    1.7030    3.4375 HO        1 <0>        0.40841
     27 H16         2.4388    1.0166    1.0924 HO        1 <0>        0.42933
@<TRIPOS>BOND
     1    1    5 1
     2    2    6 1
     3    3    7 1
     4    4    5 1
     5    4    7 1
     6    5    8 1
     7    6    9 1
     8    6   11 1
     9    7   10 1
    10    7   11 1
    11    1   12 1
    12    1   13 1
    13    1   14 1
    14    2   15 1
    15    2   16 1
    16    2   17 1
    17    3   18 1
    18    3   19 1
    19    3   20 1
    20    4   21 1
    21    4   22 1
    22    5   23 1
    23    6   24 1
    24    8   25 1
    25    9   26 1
    26   10   27 1
@<TRIPOS>SUBSTRUCTURE
     1 <0>         1 GROUP 0 A     ****
