@<TRIPOS>MOLECULE
AlkEthOH_r165
   18    18     1     0     0
SMALL
USER_CHARGES

@<TRIPOS>ATOM
      1 C1          0.1227   -0.8644    0.6616 CT        1 <0>        0.10453
      2 C2          1.4735   -2.7983    0.2605 CT        1 <0>        0.10453
      3 C3         -0.0371   -0.4071    2.1057 CT        1 <0>        0.10764
      4 C4          1.2196   -3.5840    1.5445 CT        1 <0>        0.10764
      5 C5         -0.3036   -2.5843    3.0855 CT        1 <0>        0.31966
      6 O1          1.4362   -1.3831    0.4567 OS        1 <0>       -0.41046
      7 O2          0.4239   -1.3601    3.0569 OS        1 <0>       -0.44778
      8 O3         -0.1407   -3.4262    1.9445 OS        1 <0>       -0.44778
      9 H1         -0.6522   -1.5848    0.3770 H1        1 <0>        0.05388
     10 H2          0.0005    0.0001    0.0001 H1        1 <0>        0.05388
     11 H3          2.4771   -3.0370   -0.1067 H1        1 <0>        0.05388
     12 H4          0.7604   -3.0756   -0.5251 H1        1 <0>        0.05388
     13 H5          0.5744    0.4885    2.2604 H1        1 <0>        0.05569
     14 H6         -1.0761   -0.1327    2.3195 H1        1 <0>        0.05569
     15 H7          1.3731   -4.6495    1.3438 H1        1 <0>        0.05569
     16 H8          1.9131   -3.2885    2.3403 H1        1 <0>        0.05569
     17 H9          0.0281   -3.1438    3.9669 H2        1 <0>        0.06187
     18 H10        -1.3719   -2.3797    3.2154 H2        1 <0>        0.06187
@<TRIPOS>BOND
     1    1    3 1
     2    1    6 1
     3    2    4 1
     4    2    6 1
     5    3    7 1
     6    4    8 1
     7    5    7 1
     8    5    8 1
     9    1    9 1
    10    1   10 1
    11    2   11 1
    12    2   12 1
    13    3   13 1
    14    3   14 1
    15    4   15 1
    16    4   16 1
    17    5   17 1
    18    5   18 1
@<TRIPOS>SUBSTRUCTURE
     1 <0>         1 GROUP 0 A     ****
