@<TRIPOS>MOLECULE
AlkEthOH_c186
   26    25     1     0     0
SMALL
USER_CHARGES

@<TRIPOS>ATOM
      1 C1         -3.1758    1.6968    0.7370 CT        1 <0>       -0.10955
      2 C2         -1.0725    2.3414    1.9494 CT        1 <0>       -0.10955
      3 C3         -1.2088    2.6038   -0.5448 CT        1 <0>       -0.10955
      4 C4         -0.4291   -0.5432   -1.5556 CT        1 <0>       -0.12196
      5 C5         -0.8318   -1.2494   -2.8447 CT        1 <0>        0.13241
      6 C6         -1.6269   -0.1876   -0.6758 CT        1 <0>        0.33200
      7 C7         -1.6517    1.7703    0.6569 CT        1 <0>        0.15922
      8 O1          0.3277   -1.5485   -3.6111 OH        1 <0>       -0.60171
      9 O2         -2.3115   -1.4028   -0.3825 OH        1 <0>       -0.61163
     10 O3         -1.1428    0.4523    0.5055 OS        1 <0>       -0.45240
     11 H1         -3.5954    1.2874   -0.1888 HC        1 <0>        0.04513
     12 H2         -3.5061    1.0732    1.5741 HC        1 <0>        0.04513
     13 H3         -3.6096    2.6961    0.8576 HC        1 <0>        0.04513
     14 H4          0.0209    2.3960    1.8963 HC        1 <0>        0.04513
     15 H5         -1.3082    1.6945    2.8021 HC        1 <0>        0.04513
     16 H6         -1.4599    3.3440    2.1573 HC        1 <0>        0.04513
     17 H7         -0.1156    2.6567   -0.6025 HC        1 <0>        0.04513
     18 H8         -1.5848    2.1875   -1.4849 HC        1 <0>        0.04513
     19 H9         -1.5640    3.6368   -0.4546 HC        1 <0>        0.04513
     20 H10         0.1319    0.3661   -1.8095 HC        1 <0>        0.06912
     21 H11         0.2780   -1.1661   -0.9932 HC        1 <0>        0.06912
     22 H12        -1.3602   -2.1853   -2.6365 H1        1 <0>        0.02727
     23 H13        -1.4818   -0.6171   -3.4568 H1        1 <0>        0.02727
     24 H14        -2.2999    0.4804   -1.2280 H2        1 <0>        0.07596
     25 H15         0.0226   -1.9947   -4.4174 HO        1 <0>        0.40095
     26 H16        -1.6846   -1.9817    0.0834 HO        1 <0>        0.41686
@<TRIPOS>BOND
     1    1    7 1
     2    2    7 1
     3    3    7 1
     4    4    5 1
     5    4    6 1
     6    5    8 1
     7    6    9 1
     8    6   10 1
     9    7   10 1
    10    1   11 1
    11    1   12 1
    12    1   13 1
    13    2   14 1
    14    2   15 1
    15    2   16 1
    16    3   17 1
    17    3   18 1
    18    3   19 1
    19    4   20 1
    20    4   21 1
    21    5   22 1
    22    5   23 1
    23    6   24 1
    24    8   25 1
    25    9   26 1
@<TRIPOS>SUBSTRUCTURE
     1 <0>         1 GROUP 0 A     ****
