@<TRIPOS>MOLECULE
AlkEthOH_c145
   28    27     1     0     0
SMALL
USER_CHARGES

@<TRIPOS>ATOM
      1 C1         -2.7700    0.5302    2.0220 CT        1 <0>       -0.08914
      2 C2         -1.0734    0.0831    0.2464 CT        1 <0>       -0.08914
      3 C3         -0.4568    1.4451    2.2296 CT        1 <0>       -0.08914
      4 C4         -1.5818   -2.3500    2.0992 CT        1 <0>       -0.12384
      5 C5          0.6954   -1.3708    2.3753 CT        1 <0>       -0.12384
      6 C6         -1.0536   -2.1417    4.6262 CT        1 <0>        0.33080
      7 C7         -1.2802    0.2165    1.7742 CT        1 <0>       -0.03534
      8 C8         -0.8096   -1.0895    2.5249 CT        1 <0>        0.17242
      9 O1         -0.9573   -1.9882    6.0349 OH        1 <0>       -0.58977
     10 O2         -1.0583   -0.9070    3.9289 OS        1 <0>       -0.41177
     11 H1         -2.9738    0.6356    3.0944 HC        1 <0>        0.03817
     12 H2         -3.0736    1.4679    1.5463 HC        1 <0>        0.03817
     13 H3         -3.4213   -0.2670    1.6505 HC        1 <0>        0.03817
     14 H4         -0.0317   -0.1409   -0.0048 HC        1 <0>        0.03817
     15 H5         -1.6791   -0.7344   -0.1628 HC        1 <0>        0.03817
     16 H6         -1.3625    0.9978   -0.2820 HC        1 <0>        0.03817
     17 H7          0.6163    1.2786    2.0762 HC        1 <0>        0.03817
     18 H8         -0.7201    2.3436    1.6626 HC        1 <0>        0.03817
     19 H9         -0.6037    1.6584    3.2936 HC        1 <0>        0.03817
     20 H10        -2.6631   -2.1896    2.1918 HC        1 <0>        0.04433
     21 H11        -1.3232   -3.2203    2.7089 HC        1 <0>        0.04433
     22 H12        -1.4142   -2.5905    1.0447 HC        1 <0>        0.04433
     23 H13         1.3083   -0.5121    2.6625 HC        1 <0>        0.04433
     24 H14         1.0043   -2.2416    2.9616 HC        1 <0>        0.04433
     25 H15         0.9399   -1.6198    1.3353 HC        1 <0>        0.04433
     26 H16        -0.2626   -2.8081    4.2630 H2        1 <0>        0.01678
     27 H17        -2.0140   -2.6218    4.4175 H2        1 <0>        0.01678
     28 H18        -0.9614   -2.8797    6.4225 HO        1 <0>        0.40569
@<TRIPOS>BOND
     1    1    7 1
     2    2    7 1
     3    3    7 1
     4    4    8 1
     5    5    8 1
     6    6    9 1
     7    6   10 1
     8    7    8 1
     9    8   10 1
    10    1   11 1
    11    1   12 1
    12    1   13 1
    13    2   14 1
    14    2   15 1
    15    2   16 1
    16    3   17 1
    17    3   18 1
    18    3   19 1
    19    4   20 1
    20    4   21 1
    21    4   22 1
    22    5   23 1
    23    5   24 1
    24    5   25 1
    25    6   26 1
    26    6   27 1
    27    9   28 1
@<TRIPOS>SUBSTRUCTURE
     1 <0>         1 GROUP 0 A     ****
