@<TRIPOS>MOLECULE
AlkEthOH_c835
   26    25     1     0     0
SMALL
USER_CHARGES

@<TRIPOS>ATOM
      1 C1         -1.7100   -1.2140    4.8808 CT        1 <0>       -0.12837
      2 C2         -0.4921    0.1122    0.9716 CT        1 <0>       -0.09374
      3 C3          1.6723    0.5912    2.1500 CT        1 <0>       -0.09374
      4 C4          2.1851   -3.3414    0.9289 CT        1 <0>        0.11448
      5 C5          0.7921   -1.7855    2.0067 CT        1 <0>        0.09910
      6 C6         -1.4688   -0.8591    3.4213 CT        1 <0>        0.33157
      7 C7          0.4298   -0.2995    2.1208 CT        1 <0>        0.15990
      8 O1         -2.5962   -0.1591    2.9036 OH        1 <0>       -0.61533
      9 O2          1.8456   -1.9690    1.0676 OS        1 <0>       -0.41241
     10 O3         -0.2710   -0.0901    3.3496 OS        1 <0>       -0.40734
     11 H1         -1.8345   -0.3108    5.4865 HC        1 <0>        0.05192
     12 H2         -2.6251   -1.8069    4.9895 HC        1 <0>        0.05192
     13 H3         -0.8829   -1.8084    5.2814 HC        1 <0>        0.05192
     14 H4         -1.3862   -0.5210    0.9424 HC        1 <0>        0.04970
     15 H5         -0.8084    1.1564    1.0628 HC        1 <0>        0.04970
     16 H6          0.0077   -0.0148    0.0045 HC        1 <0>        0.04970
     17 H7          2.3454    0.3108    2.9678 HC        1 <0>        0.04970
     18 H8          1.3962    1.6368    2.3298 HC        1 <0>        0.04970
     19 H9          2.2270    0.5381    1.2076 HC        1 <0>        0.04970
     20 H10         2.9948   -3.4456    0.2025 H1        1 <0>        0.03411
     21 H11         1.3083   -3.9027    0.5963 H1        1 <0>        0.03411
     22 H12         2.5155   -3.7254    1.8970 H1        1 <0>        0.03411
     23 H13         1.1389   -2.1760    2.9697 H1        1 <0>        0.03020
     24 H14        -0.0689   -2.3748    1.6736 H1        1 <0>        0.03020
     25 H15        -1.3488   -1.7837    2.8451 H2        1 <0>        0.02555
     26 H16        -3.3743   -0.7362    2.9802 HO        1 <0>        0.40364
@<TRIPOS>BOND
     1    1    6 1
     2    2    7 1
     3    3    7 1
     4    4    9 1
     5    5    7 1
     6    5    9 1
     7    6    8 1
     8    6   10 1
     9    7   10 1
    10    1   11 1
    11    1   12 1
    12    1   13 1
    13    2   14 1
    14    2   15 1
    15    2   16 1
    16    3   17 1
    17    3   18 1
    18    3   19 1
    19    4   20 1
    20    4   21 1
    21    4   22 1
    22    5   23 1
    23    5   24 1
    24    6   25 1
    25    8   26 1
@<TRIPOS>SUBSTRUCTURE
     1 <0>         1 GROUP 0 A     ****
