@<TRIPOS>MOLECULE
AlkEthOH_r782
   32    32     1     0     0
SMALL
USER_CHARGES

@<TRIPOS>ATOM
      1 C1         -2.0771   -0.4223   -0.1754 CT        1 <0>       -0.06677
      2 C2         -1.9035   -1.9246    0.0896 CT        1 <0>       -0.08427
      3 C3         -1.3818    0.4756    0.8551 CT        1 <0>       -0.10036
      4 C4          0.7222    0.9747   -0.6127 CT        1 <0>       -0.05668
      5 C5         -0.4500   -2.3929    0.1386 CT        1 <0>        0.12790
      6 C6          1.5736   -1.4410   -0.7087 CT        1 <0>        0.13015
      7 C7          1.6081   -0.1044    0.0616 CT        1 <0>       -0.09081
      8 C8         -0.4154    1.5366    0.2769 CT        1 <0>        0.15439
      9 C9          3.0583    0.3735    0.1834 CT        1 <0>       -0.08846
     10 C10        -1.1906    2.6068   -0.5054 CT        1 <0>       -0.12438
     11 O1          0.2467   -1.8793   -0.9907 OS        1 <0>       -0.42207
     12 O2          0.2096    2.1973    1.3876 OH        1 <0>       -0.60485
     13 H1         -1.7506   -0.1981   -1.1957 HC        1 <0>        0.04680
     14 H2         -3.1522   -0.2013   -0.1594 HC        1 <0>        0.04680
     15 H3         -2.4059   -2.2033    1.0231 HC        1 <0>        0.04464
     16 H4         -2.4162   -2.4611   -0.7189 HC        1 <0>        0.04464
     17 H5         -2.1595    1.0012    1.4283 HC        1 <0>        0.04143
     18 H6         -0.8711   -0.1160    1.6227 HC        1 <0>        0.04143
     19 H7          1.3642    1.8174   -0.9058 HC        1 <0>        0.05637
     20 H8          0.3047    0.5968   -1.5531 HC        1 <0>        0.05637
     21 H9          0.0151   -2.0981    1.0843 H1        1 <0>        0.03276
     22 H10        -0.4123   -3.4867    0.0931 H1        1 <0>        0.03276
     23 H11         2.0726   -1.3170   -1.6768 H1        1 <0>        0.04529
     24 H12         2.1161   -2.2255   -0.1670 H1        1 <0>        0.04529
     25 H13         1.2547   -0.2829    1.0813 HC        1 <0>        0.06049
     26 H14         3.4629    0.5673   -0.8070 HC        1 <0>        0.03656
     27 H15         3.6548   -0.3928    0.6724 HC        1 <0>        0.03656
     28 H16         3.0929    1.2872    0.7719 HC        1 <0>        0.03656
     29 H17        -0.4940    3.3397   -0.9015 HC        1 <0>        0.04211
     30 H18        -1.8964    3.0981    0.1578 HC        1 <0>        0.04211
     31 H19        -1.7280    2.1370   -1.3239 HC        1 <0>        0.04211
     32 H20        -0.5082    2.5975    1.8970 HO        1 <0>        0.39513
@<TRIPOS>BOND
     1    1    2 1
     2    1    3 1
     3    2    5 1
     4    3    8 1
     5    4    7 1
     6    4    8 1
     7    5   11 1
     8    6    7 1
     9    6   11 1
    10    7    9 1
    11    8   10 1
    12    8   12 1
    13    1   13 1
    14    1   14 1
    15    2   15 1
    16    2   16 1
    17    3   17 1
    18    3   18 1
    19    4   19 1
    20    4   20 1
    21    5   21 1
    22    5   22 1
    23    6   23 1
    24    6   24 1
    25    7   25 1
    26    9   26 1
    27    9   27 1
    28    9   28 1
    29   10   29 1
    30   10   30 1
    31   10   31 1
    32   12   32 1
@<TRIPOS>SUBSTRUCTURE
     1 <0>         1 GROUP 0 A     ****
