@<TRIPOS>MOLECULE
AlkEthOH_r1100
   26    26     1     0     0
SMALL
USER_CHARGES

@<TRIPOS>ATOM
      1 C1          0.6765    1.9717    1.0678 CT        1 <0>        0.09676
      2 C2          1.3965    0.6387    1.1811 CT        1 <0>        0.09992
      3 C3         -1.2161    1.1370   -0.1456 CT        1 <0>        0.13115
      4 C4         -1.0247   -0.3832   -0.0049 CT        1 <0>       -0.11906
      5 C5          0.3926   -0.8673   -0.4587 CT        1 <0>        0.15881
      6 C6         -2.1712   -1.1183   -0.7128 CT        1 <0>       -0.08691
      7 C7          0.7239   -2.2411    0.1526 CT        1 <0>       -0.10076
      8 C8          0.5062   -0.9909   -1.9891 CT        1 <0>       -0.10076
      9 O1         -0.7368    1.8190    1.0130 OS        1 <0>       -0.41835
     10 O2          1.4530    0.0343   -0.1035 OS        1 <0>       -0.42954
     11 H1          0.8897    2.5719    1.9580 H1        1 <0>        0.05556
     12 H2          1.0109    2.5384    0.1913 H1        1 <0>        0.05556
     13 H3          2.4328    0.8244    1.4810 H1        1 <0>        0.05545
     14 H4          0.9444   -0.0221    1.9270 H1        1 <0>        0.05545
     15 H5         -0.7568    1.5445   -1.0531 H1        1 <0>        0.05344
     16 H6         -2.2848    1.3727   -0.1993 H1        1 <0>        0.05344
     17 H7         -1.1243   -0.6166    1.0648 HC        1 <0>        0.06451
     18 H8         -2.1218   -0.9221   -1.7800 HC        1 <0>        0.03819
     19 H9         -3.1217   -0.7659   -0.3229 HC        1 <0>        0.03819
     20 H10        -2.0797   -2.1861   -0.5357 HC        1 <0>        0.03819
     21 H11         1.7094   -2.5505   -0.1784 HC        1 <0>        0.04346
     22 H12        -0.0158   -2.9642   -0.1735 HC        1 <0>        0.04346
     23 H13         0.7083   -2.1633    1.2343 HC        1 <0>        0.04346
     24 H14         1.5043   -1.3283   -2.2467 HC        1 <0>        0.04346
     25 H15         0.3192   -0.0223   -2.4401 HC        1 <0>        0.04346
     26 H16        -0.2260   -1.7080   -2.3444 HC        1 <0>        0.04346
@<TRIPOS>BOND
     1    1    2 1
     2    1    9 1
     3    2   10 1
     4    3    4 1
     5    3    9 1
     6    4    5 1
     7    4    6 1
     8    5    7 1
     9    5    8 1
    10    5   10 1
    11    1   11 1
    12    1   12 1
    13    2   13 1
    14    2   14 1
    15    3   15 1
    16    3   16 1
    17    4   17 1
    18    6   18 1
    19    6   19 1
    20    6   20 1
    21    7   21 1
    22    7   22 1
    23    7   23 1
    24    8   24 1
    25    8   25 1
    26    8   26 1
@<TRIPOS>SUBSTRUCTURE
     1 <0>         1 GROUP 0 A     ****
