@<TRIPOS>MOLECULE
AlkEthOH_r1069
   24    24     1     0     0
SMALL
USER_CHARGES

@<TRIPOS>ATOM
      1 C1         -0.7826   -0.6624   -1.9992 CT        1 <0>       -0.08889
      2 C2          0.5714   -0.0255   -1.6856 CT        1 <0>       -0.13624
      3 C3         -1.6071   -1.0933   -0.7903 CT        1 <0>        0.12719
      4 C4         -0.6280   -1.1102    1.3913 CT        1 <0>        0.10987
      5 C5          0.3912    0.0287    1.2858 CT        1 <0>        0.11425
      6 C6          0.5168    1.2315   -0.8098 CT        1 <0>        0.33953
      7 C7          0.6308    0.6534    2.6558 CT        1 <0>       -0.10060
      8 O1         -0.7999   -1.7974    0.1502 OS        1 <0>       -0.42085
      9 O2         -0.1394    1.0545    0.4441 OS        1 <0>       -0.41388
     10 O3          1.8468    1.7207   -0.6424 OH        1 <0>       -0.62351
     11 H1         -1.3811    0.0146   -2.6199 HC        1 <0>        0.04584
     12 H2         -0.5847   -1.5515   -2.6117 HC        1 <0>        0.04584
     13 H3          1.2282   -0.7786   -1.2339 HC        1 <0>        0.05756
     14 H4          1.0639    0.2336   -2.6324 HC        1 <0>        0.05756
     15 H5         -2.1246   -0.2384   -0.3400 H1        1 <0>        0.04862
     16 H6         -2.3902   -1.7822   -1.1264 H1        1 <0>        0.04862
     17 H7         -0.2663   -1.8538    2.1099 H1        1 <0>        0.05491
     18 H8         -1.6015   -0.7551    1.7510 H1        1 <0>        0.05491
     19 H9          1.3455   -0.3499    0.9034 H1        1 <0>        0.06549
     20 H10        -0.0455    2.0007   -1.3516 H2        1 <0>        0.06644
     21 H11        -0.3061    1.0382    3.0579 HC        1 <0>        0.04630
     22 H12         1.3434    1.4733    2.5709 HC        1 <0>        0.04630
     23 H13         1.0301   -0.0943    3.3406 HC        1 <0>        0.04630
     24 H14         2.1792    1.9213   -1.5304 HO        1 <0>        0.40844
@<TRIPOS>BOND
     1    1    2 1
     2    1    3 1
     3    2    6 1
     4    3    8 1
     5    4    5 1
     6    4    8 1
     7    5    7 1
     8    5    9 1
     9    6    9 1
    10    6   10 1
    11    1   11 1
    12    1   12 1
    13    2   13 1
    14    2   14 1
    15    3   15 1
    16    3   16 1
    17    4   17 1
    18    4   18 1
    19    5   19 1
    20    6   20 1
    21    7   21 1
    22    7   22 1
    23    7   23 1
    24   10   24 1
@<TRIPOS>SUBSTRUCTURE
     1 <0>         1 GROUP 0 A     ****
