@<TRIPOS>MOLECULE
AlkEthOH_r879
   28    28     1     0     0
SMALL
USER_CHARGES

@<TRIPOS>ATOM
      1 C1          1.1674    2.0127   -0.2460 CT        1 <0>       -0.07521
      2 C2          1.9971    0.7267   -0.2429 CT        1 <0>       -0.07265
      3 C3         -0.2940    1.8869   -0.6815 CT        1 <0>       -0.07249
      4 C4          1.6106   -0.2728    0.8487 CT        1 <0>       -0.07101
      5 C5         -1.1864    1.1157    0.2967 CT        1 <0>       -0.06653
      6 C6         -0.3590   -1.1850   -0.6110 CT        1 <0>       -0.10364
      7 C7          0.7791   -1.4782    0.3774 CT        1 <0>       -0.05455
      8 C8         -1.5227   -0.3154   -0.1291 CT        1 <0>        0.14688
      9 C9          0.2765   -2.2668    1.5911 CT        1 <0>       -0.09318
     10 O1         -2.4686   -0.2237   -1.2034 OH        1 <0>       -0.60581
     11 H1          1.2143    2.4811    0.7454 HC        1 <0>        0.03592
     12 H2          1.6549    2.7170   -0.9328 HC        1 <0>        0.03592
     13 H3          2.0034    0.2639   -1.2355 HC        1 <0>        0.03821
     14 H4          3.0362    1.0291   -0.0545 HC        1 <0>        0.03821
     15 H5         -0.6884    2.9099   -0.7477 HC        1 <0>        0.04446
     16 H6         -0.3574    1.4812   -1.6971 HC        1 <0>        0.04446
     17 H7          2.5427   -0.6793    1.2672 HC        1 <0>        0.03833
     18 H8          1.1327    0.2370    1.6917 HC        1 <0>        0.03833
     19 H9         -0.7667    1.1306    1.3066 HC        1 <0>        0.04991
     20 H10        -2.1357    1.6651    0.3679 HC        1 <0>        0.04991
     21 H11         0.0481   -0.7762   -1.5434 HC        1 <0>        0.04371
     22 H12        -0.7804   -2.1507   -0.9278 HC        1 <0>        0.04371
     23 H13         1.4729   -2.1413   -0.1595 HC        1 <0>        0.04180
     24 H14        -2.0449   -0.8098    0.6975 H1        1 <0>        0.02772
     25 H15        -0.4176   -1.6545    2.1613 HC        1 <0>        0.03426
     26 H16         1.1185   -2.5398    2.2221 HC        1 <0>        0.03426
     27 H17        -0.2299   -3.1684    1.2554 HC        1 <0>        0.03426
     28 H18        -2.6702   -1.1341   -1.4602 HO        1 <0>        0.39481
@<TRIPOS>BOND
     1    1    2 1
     2    1    3 1
     3    2    4 1
     4    3    5 1
     5    4    7 1
     6    5    8 1
     7    6    7 1
     8    6    8 1
     9    7    9 1
    10    8   10 1
    11    1   11 1
    12    1   12 1
    13    2   13 1
    14    2   14 1
    15    3   15 1
    16    3   16 1
    17    4   17 1
    18    4   18 1
    19    5   19 1
    20    5   20 1
    21    6   21 1
    22    6   22 1
    23    7   23 1
    24    8   24 1
    25    9   25 1
    26    9   26 1
    27    9   27 1
    28   10   28 1
@<TRIPOS>SUBSTRUCTURE
     1 <0>         1 GROUP 0 A     ****
