@<TRIPOS>MOLECULE
AlkEthOH_r814
   19    19     1     0     0
SMALL
USER_CHARGES

@<TRIPOS>ATOM
      1 C1          0.4978   -0.5396   -0.8154 CT        1 <0>       -0.10682
      2 C2         -0.0765   -2.7333   -0.2068 CT        1 <0>        0.12768
      3 C3         -0.3569   -1.6985   -1.2837 CT        1 <0>       -0.09654
      4 C4          1.7342   -1.2662   -0.3113 CT        1 <0>        0.13636
      5 C5         -1.8276   -1.3625   -1.4401 CT        1 <0>       -0.08571
      6 C6          2.4997   -0.4947    0.7463 CT        1 <0>       -0.09791
      7 O1          1.2734   -2.5147    0.2337 OS        1 <0>       -0.42829
      8 H1          0.7270    0.1782   -1.6087 HC        1 <0>        0.05509
      9 H2          0.0002    0.0002   -0.0000 HC        1 <0>        0.05509
     10 H3         -0.7313   -2.6141    0.6633 H1        1 <0>        0.04629
     11 H4         -0.1757   -3.7578   -0.5776 H1        1 <0>        0.04629
     12 H5          0.0348   -2.0636   -2.2421 HC        1 <0>        0.05827
     13 H6          2.4008   -1.5056   -1.1485 H1        1 <0>        0.04420
     14 H7         -2.2361   -0.9967   -0.4953 HC        1 <0>        0.03802
     15 H8         -2.3895   -2.2491   -1.7424 HC        1 <0>        0.03802
     16 H9         -1.9616   -0.5892   -2.2001 HC        1 <0>        0.03802
     17 H10         1.8455   -0.2502    1.5863 HC        1 <0>        0.04398
     18 H11         2.8920    0.4354    0.3286 HC        1 <0>        0.04398
     19 H12         3.3370   -1.0895    1.1189 HC        1 <0>        0.04398
@<TRIPOS>BOND
     1    1    3 1
     2    1    4 1
     3    2    3 1
     4    2    7 1
     5    3    5 1
     6    4    6 1
     7    4    7 1
     8    1    8 1
     9    1    9 1
    10    2   10 1
    11    2   11 1
    12    3   12 1
    13    4   13 1
    14    5   14 1
    15    5   15 1
    16    5   16 1
    17    6   17 1
    18    6   18 1
    19    6   19 1
@<TRIPOS>SUBSTRUCTURE
     1 <0>         1 GROUP 0 A     ****
