@<TRIPOS>MOLECULE
AlkEthOH_r467
   27    27     1     0     0
SMALL
USER_CHARGES

@<TRIPOS>ATOM
      1 C1         -0.2500    2.0824    0.6903 CT        1 <0>       -0.10690
      2 C2          1.0953    1.3724    0.8342 CT        1 <0>       -0.10035
      3 C3         -0.9982    1.7077   -0.5794 CT        1 <0>        0.15171
      4 C4          1.0621   -0.1682    0.7768 CT        1 <0>        0.17916
      5 C5         -0.7216   -0.6803   -0.8572 CT        1 <0>        0.53749
      6 C6          0.2419   -0.7822    1.9196 CT        1 <0>       -0.10078
      7 C7          2.5115   -0.6713    0.9206 CT        1 <0>       -0.10078
      8 C8         -0.7862   -0.7812   -2.3891 CT        1 <0>       -0.11244
      9 O1         -1.5543    0.4077   -0.4486 OS        1 <0>       -0.48523
     10 O2          0.6689   -0.5873   -0.5342 OS        1 <0>       -0.43890
     11 O3         -1.2695   -1.8997   -0.3330 OH        1 <0>       -0.60995
     12 H1         -0.8718    1.8672    1.5668 HC        1 <0>        0.05221
     13 H2         -0.0660    3.1635    0.6862 HC        1 <0>        0.05221
     14 H3          1.7450    1.7415    0.0284 HC        1 <0>        0.04793
     15 H4          1.5523    1.6978    1.7777 HC        1 <0>        0.04793
     16 H5         -1.8413    2.3963   -0.6999 H1        1 <0>        0.05018
     17 H6         -0.3708    1.8076   -1.4708 H1        1 <0>        0.05018
     18 H7          0.2513   -1.8654    1.8320 HC        1 <0>        0.04772
     19 H8         -0.7826   -0.4242    1.8643 HC        1 <0>        0.04772
     20 H9          0.6750   -0.4930    2.8735 HC        1 <0>        0.04772
     21 H10         2.5163   -1.7546    0.8834 HC        1 <0>        0.04772
     22 H11         2.9114   -0.3340    1.8700 HC        1 <0>        0.04772
     23 H12         3.1076   -0.2725    0.1077 HC        1 <0>        0.04772
     24 H13        -0.1598   -1.6030   -2.7248 HC        1 <0>        0.05832
     25 H14        -0.4317    0.1470   -2.8285 HC        1 <0>        0.05832
     26 H15        -1.8128   -0.9590   -2.6974 HC        1 <0>        0.05832
     27 H16        -2.1795   -1.9475   -0.6586 HO        1 <0>        0.42505
@<TRIPOS>BOND
     1    1    2 1
     2    1    3 1
     3    2    4 1
     4    3    9 1
     5    4    6 1
     6    4    7 1
     7    4   10 1
     8    5    8 1
     9    5    9 1
    10    5   10 1
    11    5   11 1
    12    1   12 1
    13    1   13 1
    14    2   14 1
    15    2   15 1
    16    3   16 1
    17    3   17 1
    18    6   18 1
    19    6   19 1
    20    6   20 1
    21    7   21 1
    22    7   22 1
    23    7   23 1
    24    8   24 1
    25    8   25 1
    26    8   26 1
    27   11   27 1
@<TRIPOS>SUBSTRUCTURE
     1 <0>         1 GROUP 0 A     ****
