@<TRIPOS>MOLECULE
AlkEthOH_c407
   26    25     1     0     0
SMALL
USER_CHARGES

@<TRIPOS>ATOM
      1 C1         -0.8232   -1.6544    1.1644 CT        1 <0>       -0.09431
      2 C2         -2.9344   -0.3231    1.0457 CT        1 <0>       -0.09431
      3 C3          1.2296    2.0741   -0.4844 CT        1 <0>       -0.14563
      4 C4         -0.6678    0.7603    0.4839 CT        1 <0>       -0.09337
      5 C5          2.9342   -0.1739    0.3584 CT        1 <0>        0.33331
      6 C6         -1.5454   -0.5140    0.4382 CT        1 <0>       -0.06058
      7 C7          0.7304    0.6570   -0.1706 CT        1 <0>        0.35077
      8 O1          3.5642   -1.1981    1.1189 OH        1 <0>       -0.58641
      9 O2          0.5822   -0.0660   -1.3935 OH        1 <0>       -0.62163
     10 O3          1.5838   -0.0081    0.7685 OS        1 <0>       -0.40206
     11 H1         -0.6634   -1.4143    2.2211 HC        1 <0>        0.03970
     12 H2          0.1533   -1.8504    0.7088 HC        1 <0>        0.03970
     13 H3         -1.4051   -2.5808    1.1116 HC        1 <0>        0.03970
     14 H4         -2.8707   -0.0142    2.0931 HC        1 <0>        0.03970
     15 H5         -3.4859    0.4622    0.5172 HC        1 <0>        0.03970
     16 H6         -3.5238   -1.2443    0.9893 HC        1 <0>        0.03970
     17 H7          2.2204    2.0537   -0.9511 HC        1 <0>        0.05036
     18 H8          0.5652    2.5767   -1.1959 HC        1 <0>        0.05036
     19 H9          1.3078    2.6789    0.4249 HC        1 <0>        0.05036
     20 H10        -0.5323    1.0150    1.5442 HC        1 <0>        0.05826
     21 H11        -1.2221    1.5886    0.0222 HC        1 <0>        0.05826
     22 H12         3.0021   -0.4395   -0.7013 H2        1 <0>        0.02432
     23 H13         3.4930    0.7481    0.5385 H2        1 <0>        0.02432
     24 H14        -1.6705   -0.8218   -0.6073 HC        1 <0>        0.03692
     25 H15         4.4796   -1.2686    0.7988 HO        1 <0>        0.40692
     26 H16        -0.0624    0.4004   -1.9515 HO        1 <0>        0.41594
@<TRIPOS>BOND
     1    1    6 1
     2    2    6 1
     3    3    7 1
     4    4    6 1
     5    4    7 1
     6    5    8 1
     7    5   10 1
     8    7    9 1
     9    7   10 1
    10    1   11 1
    11    1   12 1
    12    1   13 1
    13    2   14 1
    14    2   15 1
    15    2   16 1
    16    3   17 1
    17    3   18 1
    18    3   19 1
    19    4   20 1
    20    4   21 1
    21    5   22 1
    22    5   23 1
    23    6   24 1
    24    8   25 1
    25    9   26 1
@<TRIPOS>SUBSTRUCTURE
     1 <0>         1 GROUP 0 A     ****
