@<TRIPOS>MOLECULE
AlkEthOH_r392
   33    33     1     0     0
SMALL
USER_CHARGES

@<TRIPOS>ATOM
      1 C1         -0.9076   -2.6775    0.6990 CT        1 <0>       -0.07257
      2 C2         -0.3219   -1.5494    1.5507 CT        1 <0>       -0.06668
      3 C3         -0.8859   -2.5134   -0.8317 CT        1 <0>       -0.08802
      4 C4         -0.9899   -0.1859    1.3543 CT        1 <0>       -0.11181
      5 C5          1.0729    0.9373    0.1906 CT        1 <0>       -0.07479
      6 C6          0.2102   -1.6105   -1.3962 CT        1 <0>        0.14721
      7 C7         -0.0132    1.0109    1.3047 CT        1 <0>        0.16774
      8 C8          0.5901    0.8011   -1.2756 CT        1 <0>        0.36043
      9 C9          0.6736    1.1888    2.6687 CT        1 <0>       -0.12731
     10 C10         1.7845    0.7004   -2.2319 CT        1 <0>       -0.15192
     11 O1         -0.3097   -0.2862   -1.4607 OS        1 <0>       -0.46149
     12 O2         -0.8175    2.1780    1.0893 OH        1 <0>       -0.57674
     13 O3         -0.0857    2.0066   -1.6612 OH        1 <0>       -0.56798
     14 H1         -0.3472   -3.5895    0.9441 HC        1 <0>        0.03674
     15 H2         -1.9401   -2.8742    1.0143 HC        1 <0>        0.03674
     16 H3         -0.4275   -1.8327    2.6065 HC        1 <0>        0.03534
     17 H4          0.7571   -1.5076    1.3813 HC        1 <0>        0.03534
     18 H5         -0.7791   -3.5154   -1.2657 HC        1 <0>        0.05201
     19 H6         -1.8666   -2.1392   -1.1521 HC        1 <0>        0.05201
     20 H7         -1.6459   -0.1725    0.4778 HC        1 <0>        0.05847
     21 H8         -1.6938   -0.0269    2.1845 HC        1 <0>        0.05847
     22 H9          1.6628    1.8639    0.2486 HC        1 <0>        0.06077
     23 H10         1.7667    0.1214    0.4212 HC        1 <0>        0.06077
     24 H11         1.1335   -1.6859   -0.8157 H1        1 <0>        0.03244
     25 H12         0.4348   -1.9155   -2.4240 H1        1 <0>        0.03244
     26 H13         1.3561    2.0316    2.6205 HC        1 <0>        0.04056
     27 H14         1.2257    0.2867    2.9135 HC        1 <0>        0.04056
     28 H15        -0.0792    1.3728    3.4290 HC        1 <0>        0.04056
     29 H16         1.4240    0.6059   -3.2522 HC        1 <0>        0.04884
     30 H17         2.3803   -0.1710   -1.9758 HC        1 <0>        0.04884
     31 H18         2.3943    1.5952   -2.1443 HC        1 <0>        0.04884
     32 H19        -1.4255    2.2260    1.8400 HO        1 <0>        0.39074
     33 H20        -0.3658    1.8730   -2.5768 HO        1 <0>        0.41345
@<TRIPOS>BOND
     1    1    2 1
     2    1    3 1
     3    2    4 1
     4    3    6 1
     5    4    7 1
     6    5    7 1
     7    5    8 1
     8    6   11 1
     9    7    9 1
    10    7   12 1
    11    8   10 1
    12    8   11 1
    13    8   13 1
    14    1   14 1
    15    1   15 1
    16    2   16 1
    17    2   17 1
    18    3   18 1
    19    3   19 1
    20    4   20 1
    21    4   21 1
    22    5   22 1
    23    5   23 1
    24    6   24 1
    25    6   25 1
    26    9   26 1
    27    9   27 1
    28    9   28 1
    29   10   29 1
    30   10   30 1
    31   10   31 1
    32   12   32 1
    33   13   33 1
@<TRIPOS>SUBSTRUCTURE
     1 <0>         1 GROUP 0 A     ****
