@<TRIPOS>MOLECULE
AlkEthOH_r279
   24    24     1     0     0
SMALL
USER_CHARGES

@<TRIPOS>ATOM
      1 C1          0.1893   -0.2557   -1.0931 CT        1 <0>       -0.16348
      2 C2         -1.2309   -0.6401    1.6067 CT        1 <0>        0.10933
      3 C3         -1.2473    0.8124    1.1592 CT        1 <0>        0.09515
      4 C4          0.1572   -1.4698   -0.1620 CT        1 <0>        0.34047
      5 C5          0.5896    1.0736   -0.4125 CT        1 <0>        0.15613
      6 C6          0.1327    2.2637   -1.2697 CT        1 <0>       -0.10174
      7 C7          2.1193    1.1422   -0.2722 CT        1 <0>       -0.10174
      8 O1         -1.0981   -1.5377    0.5105 OS        1 <0>       -0.45766
      9 O2          0.0855    1.2423    0.9153 OS        1 <0>       -0.42399
     10 O3          0.3027   -2.6309   -0.9821 OH        1 <0>       -0.59003
     11 H1          0.8617   -0.4437   -1.9409 HC        1 <0>        0.06540
     12 H2         -0.8101   -0.1486   -1.5377 HC        1 <0>        0.06540
     13 H3         -0.4318   -0.8321    2.3318 H1        1 <0>        0.06017
     14 H4         -2.1857   -0.8776    2.0866 H1        1 <0>        0.06017
     15 H5         -1.8935    0.9765    0.2912 H1        1 <0>        0.05771
     16 H6         -1.6244    1.4287    1.9817 H1        1 <0>        0.05771
     17 H7          0.9870   -1.4672    0.5534 H2        1 <0>        0.08350
     18 H8          0.4194    3.1903   -0.7816 HC        1 <0>        0.04521
     19 H9         -0.9465    2.2319   -1.3840 HC        1 <0>        0.04521
     20 H10         0.6039    2.2061   -2.2463 HC        1 <0>        0.04521
     21 H11         2.3942    2.0770    0.2059 HC        1 <0>        0.04521
     22 H12         2.5726    1.0891   -1.2568 HC        1 <0>        0.04521
     23 H13         2.4618    0.3086    0.3326 HC        1 <0>        0.04521
     24 H14        -0.4445   -2.6245   -1.5985 HO        1 <0>        0.41624
@<TRIPOS>BOND
     1    1    4 1
     2    1    5 1
     3    2    3 1
     4    2    8 1
     5    3    9 1
     6    4    8 1
     7    4   10 1
     8    5    6 1
     9    5    7 1
    10    5    9 1
    11    1   11 1
    12    1   12 1
    13    2   13 1
    14    2   14 1
    15    3   15 1
    16    3   16 1
    17    4   17 1
    18    6   18 1
    19    6   19 1
    20    6   20 1
    21    7   21 1
    22    7   22 1
    23    7   23 1
    24   10   24 1
@<TRIPOS>SUBSTRUCTURE
     1 <0>         1 GROUP 0 A     ****
