@<TRIPOS>MOLECULE
AlkEthOH_r526
   20    20     1     0     0
SMALL
USER_CHARGES

@<TRIPOS>ATOM
      1 C1          0.5085   -1.2849   -0.1240 CT        1 <0>       -0.10818
      2 C2         -0.2792   -1.1197   -1.4111 CT        1 <0>        0.12964
      3 C3         -0.2130    0.9456   -0.3240 CT        1 <0>        0.33307
      4 C4          0.0028   -0.1372    0.7430 CT        1 <0>       -0.06816
      5 C5         -1.3376   -0.5127    1.4025 CT        1 <0>       -0.08465
      6 C6          1.0075    0.2450    1.8314 CT        1 <0>       -0.08465
      7 O1         -0.6963    0.2517   -1.4861 OS        1 <0>       -0.46257
      8 O2          1.0074    1.6122   -0.6317 OH        1 <0>       -0.62270
      9 H1          0.3756   -2.2764    0.3202 HC        1 <0>        0.06148
     10 H2          1.5775   -1.1653   -0.3411 HC        1 <0>        0.06148
     11 H3          0.3180   -1.3680   -2.2936 H1        1 <0>        0.04906
     12 H4         -1.1776   -1.7451   -1.4164 H1        1 <0>        0.04906
     13 H5         -0.9487    1.6961   -0.0152 H2        1 <0>        0.06815
     14 H6         -1.6785    0.3160    2.0133 HC        1 <0>        0.04276
     15 H7         -1.1957   -1.3910    2.0224 HC        1 <0>        0.04276
     16 H8         -2.0682   -0.7234    0.6293 HC        1 <0>        0.04276
     17 H9          0.6099    1.0648    2.4258 HC        1 <0>        0.04276
     18 H10         1.9439    0.5557    1.3730 HC        1 <0>        0.04276
     19 H11         1.1910   -0.6107    2.4777 HC        1 <0>        0.04276
     20 H12         0.7977    2.2767   -1.3065 HO        1 <0>        0.42241
@<TRIPOS>BOND
     1    1    2 1
     2    1    4 1
     3    2    7 1
     4    3    4 1
     5    3    7 1
     6    3    8 1
     7    4    5 1
     8    4    6 1
     9    1    9 1
    10    1   10 1
    11    2   11 1
    12    2   12 1
    13    3   13 1
    14    5   14 1
    15    5   15 1
    16    5   16 1
    17    6   17 1
    18    6   18 1
    19    6   19 1
    20    8   20 1
@<TRIPOS>SUBSTRUCTURE
     1 <0>         1 GROUP 0 A     ****
