@<TRIPOS>MOLECULE
AlkEthOH_r229
   35    35     1     0     0
SMALL
USER_CHARGES

@<TRIPOS>ATOM
      1 C1         -1.6069    1.8305    0.3901 CT        1 <0>       -0.05925
      2 C2         -2.0142    0.6813    1.3121 CT        1 <0>       -0.10967
      3 C3         -0.2483    1.7462   -0.3151 CT        1 <0>       -0.10750
      4 C4         -0.0403   -0.8062   -1.0468 CT        1 <0>       -0.04806
      5 C5         -1.0230    0.4047    2.4403 CT        1 <0>        0.13155
      6 C6          0.2834   -1.3319    1.4590 CT        1 <0>        0.13247
      7 C7          0.9099   -1.4045    0.0447 CT        1 <0>       -0.05230
      8 C8         -0.0442    0.6975   -1.4283 CT        1 <0>        0.16944
      9 C9          1.0732   -2.9142   -0.2744 CT        1 <0>       -0.08341
     10 C10         2.3134   -0.7797    0.0405 CT        1 <0>       -0.08341
     11 C11        -1.0861    0.9032   -2.5456 CT        1 <0>       -0.12825
     12 O1          0.2492   -0.0012    1.9528 OS        1 <0>       -0.41645
     13 O2          1.2341    0.9742   -2.0294 OH        1 <0>       -0.60387
     14 H1         -2.3990    1.9795   -0.3528 HC        1 <0>        0.03588
     15 H2         -1.6022    2.7492    0.9925 HC        1 <0>        0.03588
     16 H3         -2.9801    0.9381    1.7653 HC        1 <0>        0.04421
     17 H4         -2.1929   -0.2185    0.7205 HC        1 <0>        0.04421
     18 H5         -0.0902    2.7328   -0.7792 HC        1 <0>        0.05551
     19 H6          0.5669    1.7028    0.4116 HC        1 <0>        0.05551
     20 H7          0.2092   -1.3357   -1.9798 HC        1 <0>        0.04359
     21 H8         -1.0650   -1.1268   -0.8253 HC        1 <0>        0.04359
     22 H9         -0.8701    1.3197    3.0227 H1        1 <0>        0.04411
     23 H10        -1.4167   -0.3511    3.1302 H1        1 <0>        0.04411
     24 H11        -0.7095   -1.7996    1.4617 H1        1 <0>        0.03492
     25 H12         0.8947   -1.9060    2.1662 H1        1 <0>        0.03492
     26 H13         1.7264   -3.3544    0.4656 HC        1 <0>        0.03791
     27 H14         1.5030   -3.0135   -1.2610 HC        1 <0>        0.03791
     28 H15         0.0990   -3.3811   -0.2404 HC        1 <0>        0.03791
     29 H16         2.9148   -1.2398    0.8187 HC        1 <0>        0.03791
     30 H17         2.2332    0.2871    0.2260 HC        1 <0>        0.03791
     31 H18         2.7792   -0.9469   -0.9259 HC        1 <0>        0.03791
     32 H19        -0.9293    0.1596   -3.3187 HC        1 <0>        0.04040
     33 H20        -0.9683    1.8971   -2.9623 HC        1 <0>        0.04040
     34 H21        -2.0807    0.7951   -2.1279 HC        1 <0>        0.04040
     35 H22         1.1714    1.8735   -2.3757 HO        1 <0>        0.39361
@<TRIPOS>BOND
     1    1    2 1
     2    1    3 1
     3    2    5 1
     4    3    8 1
     5    4    7 1
     6    4    8 1
     7    5   12 1
     8    6    7 1
     9    6   12 1
    10    7    9 1
    11    7   10 1
    12    8   11 1
    13    8   13 1
    14    1   14 1
    15    1   15 1
    16    2   16 1
    17    2   17 1
    18    3   18 1
    19    3   19 1
    20    4   20 1
    21    4   21 1
    22    5   22 1
    23    5   23 1
    24    6   24 1
    25    6   25 1
    26    9   26 1
    27    9   27 1
    28    9   28 1
    29   10   29 1
    30   10   30 1
    31   10   31 1
    32   11   32 1
    33   11   33 1
    34   11   34 1
    35   13   35 1
@<TRIPOS>SUBSTRUCTURE
     1 <0>         1 GROUP 0 A     ****
