@<TRIPOS>MOLECULE
AlkEthOH_c628
   34    33     1     0     0
SMALL
USER_CHARGES

@<TRIPOS>ATOM
      1 C1          1.8449    1.3095   -0.6476 CT        1 <0>       -0.13418
      2 C2          1.3463   -2.8030   -0.5036 CT        1 <0>       -0.11004
      3 C3          0.0185   -4.3051   -2.0168 CT        1 <0>       -0.11004
      4 C4          2.3447   -4.9596   -1.3323 CT        1 <0>       -0.11004
      5 C5          3.3099   -1.4008   -3.7175 CT        1 <0>       -0.10245
      6 C6          3.9924   -2.7060   -1.6948 CT        1 <0>       -0.10245
      7 C7          2.0673   -1.0299   -1.5592 CT        1 <0>       -0.10720
      8 C8          2.6796    0.3802   -1.5208 CT        1 <0>        0.14180
      9 C9          1.4139   -3.7942   -1.6644 CT        1 <0>        0.16410
     10 C10         2.8129   -2.0681   -2.4299 CT        1 <0>        0.17923
     11 O1          3.9933    0.3480   -0.9741 OH        1 <0>       -0.60273
     12 O2          1.9228   -3.1204   -2.8044 OS        1 <0>       -0.43358
     13 H1          1.7551    0.9241    0.3725 HC        1 <0>        0.04302
     14 H2          2.2848    2.3122   -0.6079 HC        1 <0>        0.04302
     15 H3          0.8391    1.4247   -1.0662 HC        1 <0>        0.04302
     16 H4          2.3459   -2.4340   -0.2476 HC        1 <0>        0.04130
     17 H5          0.7095   -1.9450   -0.7424 HC        1 <0>        0.04130
     18 H6          0.9539   -3.2845    0.3994 HC        1 <0>        0.04130
     19 H7          0.0623   -5.0166   -2.8493 HC        1 <0>        0.04130
     20 H8         -0.6263   -3.4827   -2.3473 HC        1 <0>        0.04130
     21 H9         -0.4585   -4.7984   -1.1638 HC        1 <0>        0.04130
     22 H10         2.3934   -5.6707   -2.1649 HC        1 <0>        0.04130
     23 H11         3.3603   -4.6146   -1.1127 HC        1 <0>        0.04130
     24 H12         1.9730   -5.5209   -0.4675 HC        1 <0>        0.04130
     25 H13         2.4899   -0.9323   -4.2714 HC        1 <0>        0.04580
     26 H14         3.7980   -2.1310   -4.3732 HC        1 <0>        0.04580
     27 H15         4.0623   -0.6352   -3.4959 HC        1 <0>        0.04580
     28 H16         3.6568   -3.1892   -0.7696 HC        1 <0>        0.04580
     29 H17         4.4933   -3.4580   -2.3127 HC        1 <0>        0.04580
     30 H18         4.7275   -1.9547   -1.3873 HC        1 <0>        0.04580
     31 H19         2.0438   -1.4103   -0.5285 HC        1 <0>        0.05811
     32 H20         1.0276   -0.9555   -1.9033 HC        1 <0>        0.05811
     33 H21         2.7375    0.8105   -2.5256 H1        1 <0>        0.03805
     34 H22         4.3263    1.2590   -0.9967 HO        1 <0>        0.39775
@<TRIPOS>BOND
     1    1    8 1
     2    2    9 1
     3    3    9 1
     4    4    9 1
     5    5   10 1
     6    6   10 1
     7    7    8 1
     8    7   10 1
     9    8   11 1
    10    9   12 1
    11   10   12 1
    12    1   13 1
    13    1   14 1
    14    1   15 1
    15    2   16 1
    16    2   17 1
    17    2   18 1
    18    3   19 1
    19    3   20 1
    20    3   21 1
    21    4   22 1
    22    4   23 1
    23    4   24 1
    24    5   25 1
    25    5   26 1
    26    5   27 1
    27    6   28 1
    28    6   29 1
    29    6   30 1
    30    7   31 1
    31    7   32 1
    32    8   33 1
    33   11   34 1
@<TRIPOS>SUBSTRUCTURE
     1 <0>         1 GROUP 0 A     ****
