@<TRIPOS>MOLECULE
AlkEthOH_c942
   28    27     1     0     0
SMALL
USER_CHARGES

@<TRIPOS>ATOM
      1 C1          0.4660   -0.3586    0.6188 CT        1 <0>       -0.09170
      2 C2         -1.4569    3.3321    3.4696 CT        1 <0>       -0.12043
      3 C3          0.9737    3.5150    4.0302 CT        1 <0>       -0.12043
      4 C4         -1.8499   -0.1974    3.7540 CT        1 <0>       -0.12128
      5 C5         -0.4117   -0.7792    1.7928 CT        1 <0>       -0.10884
      6 C6          0.1295    1.3278    3.1313 CT        1 <0>       -0.05340
      7 C7         -0.2361    2.5691    3.9858 CT        1 <0>        0.15827
      8 C8         -0.9999    0.3921    2.6224 CT        1 <0>        0.15791
      9 O1         -0.4869    2.1526    5.3289 OH        1 <0>       -0.60580
     10 O2         -1.8634    1.1453    1.7669 OH        1 <0>       -0.60196
     11 H1         -0.0677    0.3105   -0.0623 HC        1 <0>        0.03720
     12 H2          0.8202   -1.2247    0.0518 HC        1 <0>        0.03720
     13 H3          1.3441    0.1826    0.9865 HC        1 <0>        0.03720
     14 H4         -2.3426    2.6905    3.4231 HC        1 <0>        0.04358
     15 H5         -1.2703    3.7274    2.4640 HC        1 <0>        0.04358
     16 H6         -1.6805    4.2052    4.0900 HC        1 <0>        0.04358
     17 H7          1.8642    2.9918    4.3975 HC        1 <0>        0.04358
     18 H8          1.1974    3.9315    3.0426 HC        1 <0>        0.04358
     19 H9          0.7981    4.3458    4.7235 HC        1 <0>        0.04358
     20 H10        -2.2941    0.5843    4.3774 HC        1 <0>        0.04637
     21 H11        -1.2656   -0.8735    4.3862 HC        1 <0>        0.04637
     22 H12        -2.6989   -0.7611    3.3490 HC        1 <0>        0.04637
     23 H13         0.1643   -1.4467    2.4455 HC        1 <0>        0.04180
     24 H14        -1.2367   -1.3732    1.3778 HC        1 <0>        0.04180
     25 H15         0.6799    1.6988    2.2565 HC        1 <0>        0.05931
     26 H16         0.8262    0.7136    3.7188 HC        1 <0>        0.05931
     27 H17        -0.6393    2.9607    5.8413 HO        1 <0>        0.39674
     28 H18        -2.5240    0.5219    1.4311 HO        1 <0>        0.39651
@<TRIPOS>BOND
     1    1    5 1
     2    2    7 1
     3    3    7 1
     4    4    8 1
     5    5    8 1
     6    6    7 1
     7    6    8 1
     8    7    9 1
     9    8   10 1
    10    1   11 1
    11    1   12 1
    12    1   13 1
    13    2   14 1
    14    2   15 1
    15    2   16 1
    16    3   17 1
    17    3   18 1
    18    3   19 1
    19    4   20 1
    20    4   21 1
    21    4   22 1
    22    5   23 1
    23    5   24 1
    24    6   25 1
    25    6   26 1
    26    9   27 1
    27   10   28 1
@<TRIPOS>SUBSTRUCTURE
     1 <0>         1 GROUP 0 A     ****
