@<TRIPOS>MOLECULE
AlkEthOH_r238
   26    26     1     0     0
SMALL
USER_CHARGES

@<TRIPOS>ATOM
      1 C1          0.8947   -0.6335   -0.0071 CT        1 <0>       -0.13987
      2 C2          2.0259   -2.6033   -1.0779 CT        1 <0>       -0.08745
      3 C3          0.9771   -1.3877    1.3134 CT        1 <0>        0.13491
      4 C4          0.8703   -1.5975   -1.1980 CT        1 <0>        0.15203
      5 C5          2.1609   -3.2444    0.3229 CT        1 <0>        0.15434
      6 C6          0.9596   -0.8314   -2.5201 CT        1 <0>       -0.12192
      7 C7          1.1155   -4.3378    0.5895 CT        1 <0>       -0.10220
      8 C8          3.5513   -3.8919    0.4355 CT        1 <0>       -0.10220
      9 O1          2.1169   -2.2416    1.3480 OS        1 <0>       -0.41651
     10 O2         -0.3658   -2.3121   -1.2058 OH        1 <0>       -0.59705
     11 H1         -0.0019   -0.0025   -0.0011 HC        1 <0>        0.05345
     12 H2          1.7700    0.0230   -0.0905 HC        1 <0>        0.05345
     13 H3          1.9277   -3.3929   -1.8338 HC        1 <0>        0.05929
     14 H4          2.9568   -2.0625   -1.2986 HC        1 <0>        0.05929
     15 H5          1.0834   -0.6704    2.1342 H1        1 <0>        0.05003
     16 H6          0.0656   -1.9600    1.5136 H1        1 <0>        0.05003
     17 H7          0.9408   -1.5326   -3.3514 HC        1 <0>        0.04346
     18 H8          1.8859   -0.2622   -2.5513 HC        1 <0>        0.04346
     19 H9          0.1160   -0.1500   -2.6058 HC        1 <0>        0.04346
     20 H10         1.2653   -4.7446    1.5850 HC        1 <0>        0.04543
     21 H11         1.2255   -5.1285   -0.1466 HC        1 <0>        0.04543
     22 H12         0.1201   -3.9099    0.5175 HC        1 <0>        0.04543
     23 H13         3.6574   -4.3455    1.4157 HC        1 <0>        0.04543
     24 H14         4.3132   -3.1308    0.3014 HC        1 <0>        0.04543
     25 H15         3.6560   -4.6523   -0.3317 HC        1 <0>        0.04543
     26 H16        -1.0661   -1.6467   -1.2832 HO        1 <0>        0.39742
@<TRIPOS>BOND
     1    1    3 1
     2    1    4 1
     3    2    4 1
     4    2    5 1
     5    3    9 1
     6    4    6 1
     7    4   10 1
     8    5    7 1
     9    5    8 1
    10    5    9 1
    11    1   11 1
    12    1   12 1
    13    2   13 1
    14    2   14 1
    15    3   15 1
    16    3   16 1
    17    6   17 1
    18    6   18 1
    19    6   19 1
    20    7   20 1
    21    7   21 1
    22    7   22 1
    23    8   23 1
    24    8   24 1
    25    8   25 1
    26   10   26 1
@<TRIPOS>SUBSTRUCTURE
     1 <0>         1 GROUP 0 A     ****
