@<TRIPOS>MOLECULE
AlkEthOH_r934
   28    28     1     0     0
SMALL
USER_CHARGES

@<TRIPOS>ATOM
      1 C1          1.1508    1.1773    1.6137 CT        1 <0>       -0.07406
      2 C2          2.1614    0.1823    1.0529 CT        1 <0>       -0.10671
      3 C3          0.0195    1.5652    0.6589 CT        1 <0>       -0.07287
      4 C4          1.5324   -1.0862    0.4979 CT        1 <0>        0.13424
      5 C5         -0.9616    0.4054    0.3819 CT        1 <0>       -0.08269
      6 C6         -0.4898   -0.5496   -0.7627 CT        1 <0>        0.15862
      7 C7         -2.3720    0.9711    0.1525 CT        1 <0>       -0.08913
      8 C8         -0.7531    0.0391   -2.1613 CT        1 <0>       -0.10119
      9 C9         -1.2116   -1.9077   -0.6820 CT        1 <0>       -0.10119
     10 O1          0.9240   -0.7971   -0.7517 OS        1 <0>       -0.42191
     11 H1          0.7221    0.7741    2.5398 HC        1 <0>        0.03707
     12 H2          1.6917    2.0879    1.9006 HC        1 <0>        0.03707
     13 H3          2.7385    0.6786    0.2626 HC        1 <0>        0.04836
     14 H4          2.8644   -0.0832    1.8510 HC        1 <0>        0.04836
     15 H5         -0.5234    2.3923    1.1348 HC        1 <0>        0.04621
     16 H6          0.4314    1.9677   -0.2731 HC        1 <0>        0.04621
     17 H7          2.3321   -1.8065    0.2941 H1        1 <0>        0.04215
     18 H8          0.8480   -1.5602    1.2083 H1        1 <0>        0.04215
     19 H9         -1.0303   -0.1856    1.3059 HC        1 <0>        0.04790
     20 H10        -2.3760    1.5708   -0.7524 HC        1 <0>        0.03571
     21 H11        -2.6539    1.5885    0.9997 HC        1 <0>        0.03571
     22 H12        -3.0759    0.1511    0.0491 HC        1 <0>        0.03571
     23 H13        -0.4080   -0.6616   -2.9137 HC        1 <0>        0.04238
     24 H14        -0.2168    0.9765   -2.2601 HC        1 <0>        0.04238
     25 H15        -1.8173    0.2110   -2.2810 HC        1 <0>        0.04238
     26 H16        -0.8629   -2.5448   -1.4873 HC        1 <0>        0.04238
     27 H17        -2.2803   -1.7492   -0.7764 HC        1 <0>        0.04238
     28 H18        -0.9925   -2.3713    0.2736 HC        1 <0>        0.04238
@<TRIPOS>BOND
     1    1    2 1
     2    1    3 1
     3    2    4 1
     4    3    5 1
     5    4   10 1
     6    5    6 1
     7    5    7 1
     8    6    8 1
     9    6    9 1
    10    6   10 1
    11    1   11 1
    12    1   12 1
    13    2   13 1
    14    2   14 1
    15    3   15 1
    16    3   16 1
    17    4   17 1
    18    4   18 1
    19    5   19 1
    20    7   20 1
    21    7   21 1
    22    7   22 1
    23    8   23 1
    24    8   24 1
    25    8   25 1
    26    9   26 1
    27    9   27 1
    28    9   28 1
@<TRIPOS>SUBSTRUCTURE
     1 <0>         1 GROUP 0 A     ****
