@<TRIPOS>MOLECULE
AlkEthOH_r395
   35    35     1     0     0
SMALL
USER_CHARGES

@<TRIPOS>ATOM
      1 C1         -1.9440    1.0090   -1.6722 CT        1 <0>       -0.06561
      2 C2         -1.5256    1.5709   -0.3069 CT        1 <0>       -0.06754
      3 C3         -2.2967   -0.4850   -1.6754 CT        1 <0>       -0.07864
      4 C4          0.0020    1.7092   -0.1403 CT        1 <0>       -0.09444
      5 C5         -1.3961   -1.3678   -0.8217 CT        1 <0>        0.13668
      6 C6          0.6403    1.0257    1.0947 CT        1 <0>        0.17444
      7 C7          0.8735   -1.2339   -0.0213 CT        1 <0>        0.35293
      8 C8         -0.0875    1.4568    2.3858 CT        1 <0>       -0.10532
      9 C9          2.0989    1.4967    1.2532 CT        1 <0>       -0.10532
     10 C10         2.2780   -1.0144   -0.5889 CT        1 <0>       -0.10837
     11 C11         0.8237   -2.6812    0.5032 CT        1 <0>       -0.10837
     12 O1         -0.0359   -1.0803   -1.1195 OS        1 <0>       -0.44658
     13 O2          0.5692   -0.4057    1.1092 OS        1 <0>       -0.45328
     14 H1         -2.8328    1.5525   -2.0182 HC        1 <0>        0.03942
     15 H2         -1.1708    1.2052   -2.4246 HC        1 <0>        0.03942
     16 H3         -1.9463    2.5827   -0.2292 HC        1 <0>        0.03953
     17 H4         -1.9942    1.0005    0.4984 HC        1 <0>        0.03953
     18 H5         -3.3325   -0.6162   -1.3398 HC        1 <0>        0.04122
     19 H6         -2.2600   -0.8322   -2.7156 HC        1 <0>        0.04122
     20 H7          0.5155    1.3760   -1.0478 HC        1 <0>        0.05038
     21 H8          0.2167    2.7857   -0.0757 HC        1 <0>        0.05038
     22 H9         -1.6249   -1.2070    0.2373 H1        1 <0>        0.03483
     23 H10        -1.5914   -2.4218   -1.0470 H1        1 <0>        0.03483
     24 H11         0.3766    0.9664    3.2331 HC        1 <0>        0.04168
     25 H12        -1.1292    1.1676    2.3170 HC        1 <0>        0.04168
     26 H13        -0.0089    2.5321    2.4929 HC        1 <0>        0.04168
     27 H14         2.5365    1.0132    2.1194 HC        1 <0>        0.04168
     28 H15         2.1124    2.5725    1.3872 HC        1 <0>        0.04168
     29 H16         2.6572    1.2303    0.3627 HC        1 <0>        0.04168
     30 H17         2.3627   -0.0007   -0.9737 HC        1 <0>        0.05143
     31 H18         2.4613   -1.7212   -1.3950 HC        1 <0>        0.05143
     32 H19         3.0168   -1.1641    0.1952 HC        1 <0>        0.05143
     33 H20        -0.1600   -2.8770    0.9155 HC        1 <0>        0.05143
     34 H21         1.5760   -2.8066    1.2742 HC        1 <0>        0.05143
     35 H22         1.0206   -3.3639   -0.3161 HC        1 <0>        0.05143
@<TRIPOS>BOND
     1    1    2 1
     2    1    3 1
     3    2    4 1
     4    3    5 1
     5    4    6 1
     6    5   12 1
     7    6    8 1
     8    6    9 1
     9    6   13 1
    10    7   10 1
    11    7   11 1
    12    7   12 1
    13    7   13 1
    14    1   14 1
    15    1   15 1
    16    2   16 1
    17    2   17 1
    18    3   18 1
    19    3   19 1
    20    4   20 1
    21    4   21 1
    22    5   22 1
    23    5   23 1
    24    8   24 1
    25    8   25 1
    26    8   26 1
    27    9   27 1
    28    9   28 1
    29    9   29 1
    30   10   30 1
    31   10   31 1
    32   10   32 1
    33   11   33 1
    34   11   34 1
    35   11   35 1
@<TRIPOS>SUBSTRUCTURE
     1 <0>         1 GROUP 0 A     ****
