@<TRIPOS>MOLECULE
AlkEthOH_c864
   24    23     1     0     0
SMALL
USER_CHARGES

@<TRIPOS>ATOM
      1 C1         -2.9805   -1.3573   -1.1049 CT        1 <0>       -0.11054
      2 C2          3.1630    0.0915   -0.2034 CT        1 <0>       -0.11054
      3 C3         -0.5830    2.0585    1.0066 CT        1 <0>       -0.11813
      4 C4         -1.5293   -0.9603   -0.8889 CT        1 <0>        0.34210
      5 C5          1.9140    0.1408    0.6608 CT        1 <0>        0.34210
      6 C6         -0.4207    0.6296    0.5041 CT        1 <0>        0.34645
      7 O1         -0.8665   -1.0655   -2.1437 OH        1 <0>       -0.62102
      8 O2          1.7280   -1.1563    1.2179 OH        1 <0>       -0.62102
      9 O3         -1.5239    0.3718   -0.3738 OS        1 <0>       -0.46972
     10 O4          0.8281    0.5250   -0.1815 OS        1 <0>       -0.46972
     11 H1         -3.4696   -0.6833   -1.8155 HC        1 <0>        0.05496
     12 H2         -3.0467   -2.3712   -1.5160 HC        1 <0>        0.05496
     13 H3         -3.5340   -1.3503   -0.1606 HC        1 <0>        0.05496
     14 H4          3.0464   -0.6267   -1.0211 HC        1 <0>        0.05496
     15 H5          4.0409   -0.1781    0.3921 HC        1 <0>        0.05496
     16 H6          3.3603    1.0712   -0.6536 HC        1 <0>        0.05496
     17 H7         -0.5336    2.7807    0.1864 HC        1 <0>        0.05528
     18 H8          0.1879    2.3025    1.7446 HC        1 <0>        0.05528
     19 H9         -1.5558    2.1852    1.4952 HC        1 <0>        0.05528
     20 H10        -1.0715   -1.6543   -0.1739 H2        1 <0>        0.05568
     21 H11         2.0634    0.8674    1.4678 H2        1 <0>        0.05568
     22 H12        -0.4758   -0.0624    1.3535 H2        1 <0>        0.04948
     23 H13        -0.9449   -1.9908   -2.4318 HO        1 <0>        0.41680
     24 H14         2.5178   -1.3610    1.7462 HO        1 <0>        0.41680
@<TRIPOS>BOND
     1    1    4 1
     2    2    5 1
     3    3    6 1
     4    4    7 1
     5    4    9 1
     6    5    8 1
     7    5   10 1
     8    6    9 1
     9    6   10 1
    10    1   11 1
    11    1   12 1
    12    1   13 1
    13    2   14 1
    14    2   15 1
    15    2   16 1
    16    3   17 1
    17    3   18 1
    18    3   19 1
    19    4   20 1
    20    5   21 1
    21    6   22 1
    22    7   23 1
    23    8   24 1
@<TRIPOS>SUBSTRUCTURE
     1 <0>         1 GROUP 0 A     ****
