@<TRIPOS>MOLECULE
AlkEthOH_r549
   27    27     1     0     0
SMALL
USER_CHARGES

@<TRIPOS>ATOM
      1 C1         -0.2317   -0.2361   -2.1619 CT        1 <0>       -0.13284
      2 C2          0.5240   -1.0384    1.2164 CT        1 <0>       -0.14257
      3 C3         -0.2047    1.1704    0.0036 CT        1 <0>       -0.09930
      4 C4         -0.4544   -1.6088   -1.5413 CT        1 <0>        0.13180
      5 C5         -0.6719   -1.9010    0.8178 CT        1 <0>        0.13801
      6 C6          0.5335    0.7702   -1.2873 CT        1 <0>        0.14856
      7 C7          0.2766    0.4802    1.3012 CT        1 <0>        0.16631
      8 C8         -0.6985    0.8112    2.4386 CT        1 <0>       -0.12568
      9 O1         -1.2901   -1.4958   -0.3959 OS        1 <0>       -0.42083
     10 O2          0.6904    1.9640   -2.0674 OH        1 <0>       -0.59840
     11 O3          1.5269    1.0842    1.6761 OH        1 <0>       -0.59789
     12 H1          0.3062   -0.3592   -3.1106 HC        1 <0>        0.05499
     13 H2         -1.2027    0.2023   -2.4288 HC        1 <0>        0.05499
     14 H3          0.8965   -1.3950    2.1870 HC        1 <0>        0.05155
     15 H4          1.3599   -1.2238    0.5312 HC        1 <0>        0.05155
     16 H5         -0.0978    2.2557    0.1426 HC        1 <0>        0.06672
     17 H6         -1.2823    1.0116   -0.1287 HC        1 <0>        0.06672
     18 H7         -0.9874   -2.2376   -2.2631 H1        1 <0>        0.04280
     19 H8          0.4966   -2.1095   -1.3281 H1        1 <0>        0.04280
     20 H9         -0.3704   -2.9521    0.7352 H1        1 <0>        0.04754
     21 H10        -1.4370   -1.8580    1.5996 H1        1 <0>        0.04754
     22 H11         1.5414    0.4032   -1.0740 H1        1 <0>        0.08421
     23 H12        -0.8569    1.8852    2.4784 HC        1 <0>        0.04444
     24 H13        -0.2822    0.4711    3.3826 HC        1 <0>        0.04444
     25 H14        -1.6464    0.3115    2.2594 HC        1 <0>        0.04444
     26 H15        -0.2043    2.2658   -2.2775 HO        1 <0>        0.39335
     27 H16         1.7579    0.6993    2.5313 HO        1 <0>        0.39475
@<TRIPOS>BOND
     1    1    4 1
     2    1    6 1
     3    2    5 1
     4    2    7 1
     5    3    6 1
     6    3    7 1
     7    4    9 1
     8    5    9 1
     9    6   10 1
    10    7    8 1
    11    7   11 1
    12    1   12 1
    13    1   13 1
    14    2   14 1
    15    2   15 1
    16    3   16 1
    17    3   17 1
    18    4   18 1
    19    4   19 1
    20    5   20 1
    21    5   21 1
    22    6   22 1
    23    8   23 1
    24    8   24 1
    25    8   25 1
    26   10   26 1
    27   11   27 1
@<TRIPOS>SUBSTRUCTURE
     1 <0>         1 GROUP 0 A     ****
