@<TRIPOS>MOLECULE
AlkEthOH_c1301
   14    13     1     0     0
SMALL
USER_CHARGES

@<TRIPOS>ATOM
      1 C1         -0.5303    0.5357    1.7396 CT        1 <0>        0.12252
      2 C2          0.7552    0.1932   -1.7570 CT        1 <0>        0.33262
      3 C3          0.1669   -1.0818    0.1619 CT        1 <0>        0.32442
      4 O1         -0.4120    1.0013   -1.7378 OH        1 <0>       -0.61008
      5 O2         -0.9351   -0.3658    0.7180 OS        1 <0>       -0.42710
      6 O3          1.1483   -0.2543   -0.4629 OS        1 <0>       -0.44352
      7 H1         -1.4055    1.0585    2.1330 H1        1 <0>        0.03627
      8 H2          0.1835    1.2550    1.3302 H1        1 <0>        0.03627
      9 H3         -0.0541   -0.0294    2.5443 H1        1 <0>        0.03627
     10 H4          1.5695    0.8131   -2.1431 H2        1 <0>        0.03295
     11 H5          0.6231   -0.6469   -2.4482 H2        1 <0>        0.03295
     12 H6          0.6617   -1.6611    0.9496 H2        1 <0>        0.05968
     13 H7         -0.2247   -1.8024   -0.5648 H2        1 <0>        0.05968
     14 H8         -0.5994    1.2555   -2.6573 HO        1 <0>        0.40707
@<TRIPOS>BOND
     1    1    5 1
     2    2    4 1
     3    2    6 1
     4    3    5 1
     5    3    6 1
     6    1    7 1
     7    1    8 1
     8    1    9 1
     9    2   10 1
    10    2   11 1
    11    3   12 1
    12    3   13 1
    13    4   14 1
@<TRIPOS>SUBSTRUCTURE
     1 <0>         1 GROUP 0 A     ****
