@<TRIPOS>MOLECULE
AlkEthOH_r890
   34    34     1     0     0
SMALL
USER_CHARGES

@<TRIPOS>ATOM
      1 C1          0.1194   -2.1940   -0.9529 CT        1 <0>       -0.07447
      2 C2          1.5677   -1.7017   -0.9534 CT        1 <0>       -0.07302
      3 C3         -0.5013   -2.4034    0.4264 CT        1 <0>       -0.06942
      4 C4          1.7592   -0.2195   -1.2973 CT        1 <0>       -0.07131
      5 C5         -0.5971   -1.2058    1.3723 CT        1 <0>       -0.06999
      6 C6          1.6645    0.7355   -0.1012 CT        1 <0>       -0.05983
      7 C7         -0.9599    0.8850   -0.1826 CT        1 <0>       -0.09475
      8 C8         -1.4739   -0.0120    0.9596 CT        1 <0>       -0.05099
      9 C9          0.3954    1.6076   -0.0256 CT        1 <0>        0.15771
     10 C10        -2.9039   -0.4709    0.6365 CT        1 <0>       -0.09209
     11 C11         0.4373    2.4548    1.2532 CT        1 <0>       -0.12602
     12 O1          0.4925    2.5244   -1.1348 OH        1 <0>       -0.60780
     13 H1         -0.5198   -1.5807   -1.5914 HC        1 <0>        0.03734
     14 H2          0.1175   -3.1824   -1.4343 HC        1 <0>        0.03734
     15 H3          2.0783   -1.9597   -0.0185 HC        1 <0>        0.03657
     16 H4          2.0893   -2.2666   -1.7386 HC        1 <0>        0.03657
     17 H5         -1.4996   -2.8372    0.2912 HC        1 <0>        0.03527
     18 H6          0.0796   -3.1809    0.9411 HC        1 <0>        0.03527
     19 H7          2.7814   -0.1278   -1.6907 HC        1 <0>        0.04528
     20 H8          1.1046    0.0832   -2.1216 HC        1 <0>        0.04528
     21 H9         -1.0215   -1.5957    2.3095 HC        1 <0>        0.03646
     22 H10         0.3994   -0.8743    1.6621 HC        1 <0>        0.03646
     23 H11         1.8563    0.2073    0.8354 HC        1 <0>        0.04797
     24 H12         2.5147    1.4278   -0.2014 HC        1 <0>        0.04797
     25 H13        -0.9898    0.3579   -1.1393 HC        1 <0>        0.04527
     26 H14        -1.7182    1.6715   -0.3249 HC        1 <0>        0.04527
     27 H15        -1.5588    0.6241    1.8511 HC        1 <0>        0.03963
     28 H16        -2.8876   -1.1085   -0.2423 HC        1 <0>        0.03411
     29 H17        -3.5261    0.3978    0.4440 HC        1 <0>        0.03411
     30 H18        -3.3036   -1.0250    1.4804 HC        1 <0>        0.03411
     31 H19        -0.4561    3.0704    1.3088 HC        1 <0>        0.04234
     32 H20         1.3163    3.0928    1.2359 HC        1 <0>        0.04234
     33 H21         0.4811    1.8006    2.1193 HC        1 <0>        0.04234
     34 H22        -0.3013    3.0713   -1.0892 HO        1 <0>        0.39468
@<TRIPOS>BOND
     1    1    2 1
     2    1    3 1
     3    2    4 1
     4    3    5 1
     5    4    6 1
     6    5    8 1
     7    6    9 1
     8    7    8 1
     9    7    9 1
    10    8   10 1
    11    9   11 1
    12    9   12 1
    13    1   13 1
    14    1   14 1
    15    2   15 1
    16    2   16 1
    17    3   17 1
    18    3   18 1
    19    4   19 1
    20    4   20 1
    21    5   21 1
    22    5   22 1
    23    6   23 1
    24    6   24 1
    25    7   25 1
    26    7   26 1
    27    8   27 1
    28   10   28 1
    29   10   29 1
    30   10   30 1
    31   11   31 1
    32   11   32 1
    33   11   33 1
    34   12   34 1
@<TRIPOS>SUBSTRUCTURE
     1 <0>         1 GROUP 0 A     ****
