@<TRIPOS>MOLECULE
AlkEthOH_c196
   26    25     1     0     0
SMALL
USER_CHARGES

@<TRIPOS>ATOM
      1 C1          1.8432   -0.3554    1.1892 CT        1 <0>       -0.12215
      2 C2          1.5806   -2.1830   -0.4982 CT        1 <0>       -0.12215
      3 C3         -0.1659    2.0031   -0.5544 CT        1 <0>       -0.12143
      4 C4         -0.3067   -0.5513   -0.2195 CT        1 <0>       -0.04814
      5 C5         -2.3932    0.8952   -0.3845 CT        1 <0>        0.09584
      6 C6          1.2322   -0.7250   -0.1630 CT        1 <0>        0.15569
      7 C7         -0.9257    0.8399    0.0857 CT        1 <0>        0.16716
      8 O1         -3.1433   -0.1702    0.1886 OH        1 <0>       -0.58995
      9 O2          1.8288    0.0884   -1.1745 OH        1 <0>       -0.60684
     10 O3         -0.9284    1.0634    1.4985 OH        1 <0>       -0.58895
     11 H1          1.6164    0.6796    1.4643 HC        1 <0>        0.04392
     12 H2          2.9281   -0.4978    1.1946 HC        1 <0>        0.04392
     13 H3          1.4582   -1.0096    1.9805 HC        1 <0>        0.04392
     14 H4          1.1548   -2.4768   -1.4646 HC        1 <0>        0.04392
     15 H5          1.1545   -2.8663    0.2454 HC        1 <0>        0.04392
     16 H6          2.6634   -2.3411   -0.5361 HC        1 <0>        0.04392
     17 H7         -0.6275    2.9672   -0.3199 HC        1 <0>        0.04793
     18 H8         -0.1920    1.9270   -1.6482 HC        1 <0>        0.04793
     19 H9          0.8825    2.0216   -0.2399 HC        1 <0>        0.04793
     20 H10        -0.6375   -0.8421   -1.2266 HC        1 <0>        0.06592
     21 H11        -0.7389   -1.2773    0.4826 HC        1 <0>        0.06592
     22 H12        -2.4592    0.8120   -1.4746 H1        1 <0>        0.02601
     23 H13        -2.8658    1.8319   -0.0689 H1        1 <0>        0.02601
     24 H14        -4.0508   -0.0810   -0.1430 HO        1 <0>        0.39710
     25 H15         2.7784   -0.1021   -1.1530 HO        1 <0>        0.39636
     26 H16        -1.3755    1.9109    1.6380 HO        1 <0>        0.39629
@<TRIPOS>BOND
     1    1    6 1
     2    2    6 1
     3    3    7 1
     4    4    6 1
     5    4    7 1
     6    5    7 1
     7    5    8 1
     8    6    9 1
     9    7   10 1
    10    1   11 1
    11    1   12 1
    12    1   13 1
    13    2   14 1
    14    2   15 1
    15    2   16 1
    16    3   17 1
    17    3   18 1
    18    3   19 1
    19    4   20 1
    20    4   21 1
    21    5   22 1
    22    5   23 1
    23    8   24 1
    24    9   25 1
    25   10   26 1
@<TRIPOS>SUBSTRUCTURE
     1 <0>         1 GROUP 0 A     ****
