@<TRIPOS>MOLECULE
AlkEthOH_r1145
   21    21     1     0     0
SMALL
USER_CHARGES

@<TRIPOS>ATOM
      1 C1         -1.6968    0.0572   -0.9205 CT        1 <0>        0.10165
      2 C2         -0.7064   -0.8404   -1.6476 CT        1 <0>        0.10172
      3 C3         -0.4758    1.0868    0.8515 CT        1 <0>        0.33489
      4 C4          0.9743   -0.6567    0.0436 CT        1 <0>        0.33489
      5 C5          0.4271    2.2846    1.1155 CT        1 <0>       -0.10124
      6 C6          2.0845   -1.5121    0.6366 CT        1 <0>       -0.10124
      7 O1         -1.0141    1.2211   -0.4643 OS        1 <0>       -0.44208
      8 O2          0.1668   -1.5252   -0.7537 OS        1 <0>       -0.44208
      9 O3          0.2405   -0.1153    1.1389 OS        1 <0>       -0.46915
     10 H1         -2.4607    0.3941   -1.6282 H1        1 <0>        0.06000
     11 H2         -2.1964   -0.4572   -0.0917 H1        1 <0>        0.06000
     12 H3         -1.2528   -1.6084   -2.2040 H1        1 <0>        0.06000
     13 H4         -0.1025   -0.2701   -2.3630 H1        1 <0>        0.06000
     14 H5         -1.3107    1.1314    1.5604 H2        1 <0>        0.05941
     15 H6          1.4309    0.1286   -0.5719 H2        1 <0>        0.05941
     16 H7          1.2720    2.2740    0.4267 HC        1 <0>        0.05397
     17 H8          0.8042    2.2495    2.1378 HC        1 <0>        0.05397
     18 H9         -0.1311    3.2106    0.9761 HC        1 <0>        0.05397
     19 H10         1.6581   -2.3029    1.2548 HC        1 <0>        0.05397
     20 H11         2.7413   -0.8979    1.2535 HC        1 <0>        0.05397
     21 H12         2.6732   -1.9667   -0.1610 HC        1 <0>        0.05397
@<TRIPOS>BOND
     1    1    2 1
     2    1    7 1
     3    2    8 1
     4    3    5 1
     5    3    7 1
     6    3    9 1
     7    4    6 1
     8    4    8 1
     9    4    9 1
    10    1   10 1
    11    1   11 1
    12    2   12 1
    13    2   13 1
    14    3   14 1
    15    4   15 1
    16    5   16 1
    17    5   17 1
    18    5   18 1
    19    6   19 1
    20    6   20 1
    21    6   21 1
@<TRIPOS>SUBSTRUCTURE
     1 <0>         1 GROUP 0 A     ****
