@<TRIPOS>MOLECULE
AlkEthOH_c1106
   22    21     1     0     0
SMALL
USER_CHARGES

@<TRIPOS>ATOM
      1 C1         -0.6707    2.1496   -2.6014 CT        1 <0>       -0.09262
      2 C2         -1.0199    1.4294   -1.3079 CT        1 <0>       -0.07920
      3 C3          0.1353    0.5436   -0.8328 CT        1 <0>       -0.11163
      4 C4          0.9966   -1.0734    0.9005 CT        1 <0>       -0.11668
      5 C5          0.7019   -1.8746    2.1645 CT        1 <0>        0.13437
      6 C6         -0.1975   -0.2256    0.4525 CT        1 <0>        0.13770
      7 O1          1.8621   -2.6162    2.5172 OH        1 <0>       -0.60658
      8 O2         -0.5179    0.6903    1.4963 OH        1 <0>       -0.59825
      9 H1          0.2221    2.7704   -2.4763 HC        1 <0>        0.03372
     10 H2         -0.4710    1.4245   -3.3967 HC        1 <0>        0.03372
     11 H3         -1.4944    2.7931   -2.9267 HC        1 <0>        0.03372
     12 H4         -1.9159    0.8186   -1.4678 HC        1 <0>        0.04624
     13 H5         -1.2656    2.1763   -0.5451 HC        1 <0>        0.04624
     14 H6          1.0140    1.1786   -0.6625 HC        1 <0>        0.04538
     15 H7          0.3920   -0.1684   -1.6268 HC        1 <0>        0.04538
     16 H8          1.8655   -0.4309    1.0942 HC        1 <0>        0.05846
     17 H9          1.2962   -1.7619    0.1006 HC        1 <0>        0.05846
     18 H10         0.4457   -1.2171    3.0010 H1        1 <0>        0.02931
     19 H11        -0.1212   -2.5767    1.9971 H1        1 <0>        0.02931
     20 H12        -1.0652   -0.8760    0.2897 H1        1 <0>        0.07494
     21 H13         1.6429   -3.1131    3.3219 HO        1 <0>        0.40032
     22 H14         0.2646    1.2489    1.6235 HO        1 <0>        0.39769
@<TRIPOS>BOND
     1    1    2 1
     2    2    3 1
     3    3    6 1
     4    4    5 1
     5    4    6 1
     6    5    7 1
     7    6    8 1
     8    1    9 1
     9    1   10 1
    10    1   11 1
    11    2   12 1
    12    2   13 1
    13    3   14 1
    14    3   15 1
    15    4   16 1
    16    4   17 1
    17    5   18 1
    18    5   19 1
    19    6   20 1
    20    7   21 1
    21    8   22 1
@<TRIPOS>SUBSTRUCTURE
     1 <0>         1 GROUP 0 A     ****
