@<TRIPOS>MOLECULE
AlkEthOH_c999
   16    15     1     0     0
SMALL
USER_CHARGES

@<TRIPOS>ATOM
      1 C1         -0.0180   -2.1330    0.0536 CT        1 <0>       -0.09085
      2 C2         -0.8900    1.6629    1.2073 CT        1 <0>        0.12404
      3 C3          0.3516   -1.0384   -0.9358 CT        1 <0>       -0.10511
      4 C4          0.3872    0.3493   -0.2938 CT        1 <0>        0.32403
      5 O1          0.7818    1.2727   -1.3053 OH        1 <0>       -0.62201
      6 O2         -0.9129    0.6416    0.2195 OS        1 <0>       -0.45383
      7 H1          0.6871   -2.1579    0.8905 HC        1 <0>        0.04007
      8 H2         -1.0249   -1.9845    0.4557 HC        1 <0>        0.04007
      9 H3          0.0058   -3.1102   -0.4389 HC        1 <0>        0.04007
     10 H4         -1.9058    1.8473    1.5655 H1        1 <0>        0.03562
     11 H5         -0.4721    2.5770    0.7780 H1        1 <0>        0.03562
     12 H6         -0.2654    1.3362    2.0421 H1        1 <0>        0.03562
     13 H7         -0.3757   -1.0449   -1.7576 HC        1 <0>        0.05681
     14 H8          1.3271   -1.2623   -1.3843 HC        1 <0>        0.05681
     15 H9          1.1311    0.3595    0.5129 H2        1 <0>        0.07352
     16 H10         1.6612    0.9998   -1.6172 HO        1 <0>        0.40952
@<TRIPOS>BOND
     1    1    3 1
     2    2    6 1
     3    3    4 1
     4    4    5 1
     5    4    6 1
     6    1    7 1
     7    1    8 1
     8    1    9 1
     9    2   10 1
    10    2   11 1
    11    2   12 1
    12    3   13 1
    13    3   14 1
    14    4   15 1
    15    5   16 1
@<TRIPOS>SUBSTRUCTURE
     1 <0>         1 GROUP 0 A     ****
