@<TRIPOS>MOLECULE
AlkEthOH_c471
   15    14     1     0     0
SMALL
USER_CHARGES

@<TRIPOS>ATOM
      1 C1          0.9983   -0.3578   -0.2742 CT        1 <0>       -0.08979
      2 C2          1.1578    1.1798   -2.2511 CT        1 <0>       -0.08979
      3 C3          1.9991    1.9493   -0.0132 CT        1 <0>        0.13331
      4 C4          1.8182    0.7470   -0.9439 CT        1 <0>       -0.06849
      5 O1          2.6754    1.5475    1.1709 OH        1 <0>       -0.60172
      6 H1         -0.0051    0.0026   -0.0230 HC        1 <0>        0.03651
      7 H2          1.4754   -0.7007    0.6503 HC        1 <0>        0.03651
      8 H3          0.8826   -1.2218   -0.9368 HC        1 <0>        0.03651
      9 H4          0.1652    1.6031   -2.0643 HC        1 <0>        0.03651
     10 H5          1.0346    0.3259   -2.9257 HC        1 <0>        0.03651
     11 H6          1.7569    1.9371   -2.7683 HC        1 <0>        0.03651
     12 H7          2.6000    2.7249   -0.4995 H1        1 <0>        0.02021
     13 H8          1.0323    2.3812    0.2672 H1        1 <0>        0.02021
     14 H9          2.8075    0.3294   -1.1709 HC        1 <0>        0.05898
     15 H10         2.7651    2.3400    1.7245 HO        1 <0>        0.39802
@<TRIPOS>BOND
     1    1    4 1
     2    2    4 1
     3    3    4 1
     4    3    5 1
     5    1    6 1
     6    1    7 1
     7    1    8 1
     8    2    9 1
     9    2   10 1
    10    2   11 1
    11    3   12 1
    12    3   13 1
    13    4   14 1
    14    5   15 1
@<TRIPOS>SUBSTRUCTURE
     1 <0>         1 GROUP 0 A     ****
