@<TRIPOS>MOLECULE
AlkEthOH_c272
   32    31     1     0     0
SMALL
USER_CHARGES

@<TRIPOS>ATOM
      1 C1          2.2120   -1.6317   -0.1781 CT        1 <0>       -0.09067
      2 C2          1.9538    0.0904    1.5652 CT        1 <0>       -0.09067
      3 C3         -2.1904    0.9922   -0.9022 CT        1 <0>       -0.08947
      4 C4         -1.9558   -1.1319    0.3599 CT        1 <0>       -0.08947
      5 C5         -1.3543    1.0092    1.4395 CT        1 <0>       -0.08947
      6 C6          0.8619    1.5005   -0.6857 CT        1 <0>       -0.09037
      7 C7          0.2056   -0.5758   -1.8564 CT        1 <0>       -0.09037
      8 C8          1.1705   -0.7448    0.5326 CT        1 <0>       -0.05921
      9 C9         -1.2814    0.2323    0.0979 CT        1 <0>       -0.04151
     10 C10         0.2356    0.1000   -0.4525 CT        1 <0>       -0.02208
     11 H1          2.9053   -1.0344   -0.7790 HC        1 <0>        0.03279
     12 H2          2.8062   -2.1933    0.5522 HC        1 <0>        0.03279
     13 H3          1.7363   -2.3758   -0.8238 HC        1 <0>        0.03279
     14 H4          2.6267    0.8184    1.1136 HC        1 <0>        0.03279
     15 H5          2.5483   -0.5463    2.2295 HC        1 <0>        0.03279
     16 H6          1.2585    0.6536    2.1990 HC        1 <0>        0.03279
     17 H7         -1.7943    1.9800   -1.1532 HC        1 <0>        0.03389
     18 H8         -2.2859    0.4378   -1.8441 HC        1 <0>        0.03389
     19 H9         -3.2060    1.1207   -0.5143 HC        1 <0>        0.03389
     20 H10        -1.3798   -1.7429    1.0610 HC        1 <0>        0.03389
     21 H11        -2.9513   -1.0001    0.8024 HC        1 <0>        0.03389
     22 H12        -2.1069   -1.6949   -0.5661 HC        1 <0>        0.03389
     23 H13        -0.7376    0.5418    2.2141 HC        1 <0>        0.03389
     24 H14        -1.0429    2.0519    1.3355 HC        1 <0>        0.03389
     25 H15        -2.3812    1.0267    1.8253 HC        1 <0>        0.03389
     26 H16         0.9334    2.0727    0.2458 HC        1 <0>        0.03417
     27 H17         1.8675    1.4400   -1.1115 HC        1 <0>        0.03417
     28 H18         0.2462    2.0986   -1.3673 HC        1 <0>        0.03417
     29 H19        -0.2219   -1.5825   -1.8148 HC        1 <0>        0.03417
     30 H20         1.2119   -0.6623   -2.2827 HC        1 <0>        0.03417
     31 H21        -0.3735    0.0021   -2.5819 HC        1 <0>        0.03417
     32 H22         0.5347   -1.4339    1.0989 HC        1 <0>        0.04652
@<TRIPOS>BOND
     1    1    8 1
     2    2    8 1
     3    3    9 1
     4    4    9 1
     5    5    9 1
     6    6   10 1
     7    7   10 1
     8    8   10 1
     9    9   10 1
    10    1   11 1
    11    1   12 1
    12    1   13 1
    13    2   14 1
    14    2   15 1
    15    2   16 1
    16    3   17 1
    17    3   18 1
    18    3   19 1
    19    4   20 1
    20    4   21 1
    21    4   22 1
    22    5   23 1
    23    5   24 1
    24    5   25 1
    25    6   26 1
    26    6   27 1
    27    6   28 1
    28    7   29 1
    29    7   30 1
    30    7   31 1
    31    8   32 1
@<TRIPOS>SUBSTRUCTURE
     1 <0>         1 GROUP 0 A     ****
