@<TRIPOS>MOLECULE
AlkEthOH_r1047
   21    21     1     0     0
SMALL
USER_CHARGES

@<TRIPOS>ATOM
      1 C1          1.4029   -0.7994   -0.6210 CT        1 <0>       -0.10999
      2 C2          0.8848   -1.6176    0.5597 CT        1 <0>        0.13732
      3 C3         -0.5249   -0.1893    1.8475 CT        1 <0>        0.33659
      4 C4          0.4132    0.2285   -1.2022 CT        1 <0>       -0.06931
      5 C5         -0.2268    1.1211   -0.1215 CT        1 <0>        0.34775
      6 C6         -0.6468   -0.4760   -2.0629 CT        1 <0>       -0.08434
      7 O1          0.7633   -0.7801    1.7038 OS        1 <0>       -0.45823
      8 O2         -1.1201    0.3448    0.6696 OS        1 <0>       -0.48741
      9 O3         -0.9456    2.1682   -0.7730 OH        1 <0>       -0.60202
     10 H1          2.2948   -0.2500   -0.2915 HC        1 <0>        0.05251
     11 H2          1.7282   -1.4813   -1.4159 HC        1 <0>        0.05251
     12 H3         -0.0516   -2.1423    0.3398 H1        1 <0>        0.05508
     13 H4          1.6320   -2.3794    0.8069 H1        1 <0>        0.05508
     14 H5         -1.2086   -0.9416    2.2548 H2        1 <0>        0.05942
     15 H6         -0.4451    0.6100    2.5920 H2        1 <0>        0.05942
     16 H7          0.9785    0.8786   -1.8840 HC        1 <0>        0.06600
     17 H8          0.5467    1.5957    0.4958 H2        1 <0>        0.04450
     18 H9         -1.2388   -1.1359   -1.4361 HC        1 <0>        0.04186
     19 H10        -0.1542   -1.0554   -2.8377 HC        1 <0>        0.04186
     20 H11        -1.2922    0.2681   -2.5195 HC        1 <0>        0.04186
     21 H12        -1.3354    2.7108   -0.0710 HO        1 <0>        0.41954
@<TRIPOS>BOND
     1    1    2 1
     2    1    4 1
     3    2    7 1
     4    3    7 1
     5    3    8 1
     6    4    5 1
     7    4    6 1
     8    5    8 1
     9    5    9 1
    10    1   10 1
    11    1   11 1
    12    2   12 1
    13    2   13 1
    14    3   14 1
    15    3   15 1
    16    4   16 1
    17    5   17 1
    18    6   18 1
    19    6   19 1
    20    6   20 1
    21    9   21 1
@<TRIPOS>SUBSTRUCTURE
     1 <0>         1 GROUP 0 A     ****
