@<TRIPOS>MOLECULE
AlkEthOH_c1261
   23    22     1     0     0
SMALL
USER_CHARGES

@<TRIPOS>ATOM
      1 C1          2.8520    1.4309    0.1660 CT        1 <0>       -0.09680
      2 C2         -1.4889   -2.3766    1.1964 CT        1 <0>       -0.10731
      3 C3          0.4554   -2.9902   -0.2851 CT        1 <0>       -0.10731
      4 C4          1.5576    0.9545   -0.4578 CT        1 <0>        0.13737
      5 C5         -0.2705   -1.8679    0.4412 CT        1 <0>        0.14203
      6 C6         -0.7045    0.4396    0.0379 CT        1 <0>        0.51318
      7 O1         -1.2239    1.3858   -0.8989 OH        1 <0>       -0.60250
      8 O2          0.5565    0.8844    0.5492 OS        1 <0>       -0.49291
      9 O3         -0.6809   -0.8878   -0.5033 OS        1 <0>       -0.42628
     10 H1          2.7304    2.4242    0.6067 HC        1 <0>        0.04329
     11 H2          3.1836    0.7366    0.9450 HC        1 <0>        0.04329
     12 H3          3.6492    1.4722   -0.5837 HC        1 <0>        0.04329
     13 H4         -2.1966   -2.8694    0.5227 HC        1 <0>        0.04521
     14 H5         -1.1870   -3.0906    1.9701 HC        1 <0>        0.04521
     15 H6         -2.0055   -1.5576    1.7091 HC        1 <0>        0.04521
     16 H7         -0.2059   -3.4977   -0.9940 HC        1 <0>        0.04521
     17 H8          0.8316   -3.7276    0.4322 HC        1 <0>        0.04521
     18 H9          1.3262   -2.6087   -0.8296 HC        1 <0>        0.04521
     19 H10         1.6861   -0.0395   -0.8967 H1        1 <0>        0.04123
     20 H11         1.2273    1.6497   -1.2354 H1        1 <0>        0.04123
     21 H12         0.4164   -1.3813    1.1413 H1        1 <0>        0.05270
     22 H13        -1.4167    0.4133    0.8716 H3        1 <0>        0.08174
     23 H14        -1.3348    2.2314   -0.4322 HO        1 <0>        0.42250
@<TRIPOS>BOND
     1    1    4 1
     2    2    5 1
     3    3    5 1
     4    4    8 1
     5    5    9 1
     6    6    7 1
     7    6    8 1
     8    6    9 1
     9    1   10 1
    10    1   11 1
    11    1   12 1
    12    2   13 1
    13    2   14 1
    14    2   15 1
    15    3   16 1
    16    3   17 1
    17    3   18 1
    18    4   19 1
    19    4   20 1
    20    5   21 1
    21    6   22 1
    22    7   23 1
@<TRIPOS>SUBSTRUCTURE
     1 <0>         1 GROUP 0 A     ****
