@<TRIPOS>MOLECULE
AlkEthOH_c369
   32    31     1     0     0
SMALL
USER_CHARGES

@<TRIPOS>ATOM
      1 C1         -2.2367   -0.9896   -0.6955 CT        1 <0>       -0.09101
      2 C2         -0.9903   -3.1071   -0.2800 CT        1 <0>       -0.09101
      3 C3          0.7443    0.3637    2.2301 CT        1 <0>       -0.09083
      4 C4          0.3495    2.5985    1.2075 CT        1 <0>       -0.09083
      5 C5          2.1593    0.7114   -0.5253 CT        1 <0>       -0.09010
      6 C6         -0.0199    1.3269   -1.5257 CT        1 <0>       -0.09010
      7 C7          0.3396   -0.9962   -0.5340 CT        1 <0>       -0.06570
      8 C8         -0.9987   -1.5910   -0.0357 CT        1 <0>       -0.06540
      9 C9          0.1318    1.0880    1.0215 CT        1 <0>       -0.05557
     10 C10         0.6261    0.5354   -0.3645 CT        1 <0>       -0.03784
     11 H1         -2.2010   -1.1068   -1.7810 HC        1 <0>        0.03284
     12 H2         -3.1560   -1.4500   -0.3195 HC        1 <0>        0.03284
     13 H3         -2.2990    0.0876   -0.5045 HC        1 <0>        0.03284
     14 H4         -0.9063   -3.3371   -1.3479 HC        1 <0>        0.03284
     15 H5         -1.9105   -3.5680    0.0949 HC        1 <0>        0.03284
     16 H6         -0.1499   -3.5817    0.2380 HC        1 <0>        0.03284
     17 H7          1.8339    0.4824    2.2316 HC        1 <0>        0.03337
     18 H8          0.3791    0.7637    3.1794 HC        1 <0>        0.03337
     19 H9          0.5348   -0.7104    2.2076 HC        1 <0>        0.03337
     20 H10         1.4102    2.8624    1.1723 HC        1 <0>        0.03337
     21 H11        -0.1416    3.1563    0.4018 HC        1 <0>        0.03337
     22 H12        -0.0663    2.9582    2.1532 HC        1 <0>        0.03337
     23 H13         2.7167    0.1843    0.2553 HC        1 <0>        0.03385
     24 H14         2.4378    1.7702   -0.4597 HC        1 <0>        0.03385
     25 H15         2.5130    0.3457   -1.4946 HC        1 <0>        0.03385
     26 H16        -1.1102    1.2711   -1.5096 HC        1 <0>        0.03385
     27 H17         0.3250    0.9614   -2.4994 HC        1 <0>        0.03385
     28 H18         0.2404    2.3907   -1.4790 HC        1 <0>        0.03385
     29 H19         1.1421   -1.5433   -0.0189 HC        1 <0>        0.03720
     30 H20         0.4608   -1.2594   -1.5947 HC        1 <0>        0.03720
     31 H21        -1.0845   -1.4473    1.0469 HC        1 <0>        0.04761
     32 H22        -0.9538    0.9350    1.0730 HC        1 <0>        0.04602
@<TRIPOS>BOND
     1    1    8 1
     2    2    8 1
     3    3    9 1
     4    4    9 1
     5    5   10 1
     6    6   10 1
     7    7    8 1
     8    7   10 1
     9    9   10 1
    10    1   11 1
    11    1   12 1
    12    1   13 1
    13    2   14 1
    14    2   15 1
    15    2   16 1
    16    3   17 1
    17    3   18 1
    18    3   19 1
    19    4   20 1
    20    4   21 1
    21    4   22 1
    22    5   23 1
    23    5   24 1
    24    5   25 1
    25    6   26 1
    26    6   27 1
    27    6   28 1
    28    7   29 1
    29    7   30 1
    30    8   31 1
    31    9   32 1
@<TRIPOS>SUBSTRUCTURE
     1 <0>         1 GROUP 0 A     ****
