@<TRIPOS>MOLECULE
AlkEthOH_c866
   21    20     1     0     0
SMALL
USER_CHARGES

@<TRIPOS>ATOM
      1 C1          0.3305    0.9512   -3.2185 CT        1 <0>       -0.12514
      2 C2          0.2022    2.1645    0.9461 CT        1 <0>       -0.11980
      3 C3         -0.4964   -1.4324    1.2250 CT        1 <0>        0.32965
      4 C4          0.8981    0.9168   -1.8090 CT        1 <0>        0.33522
      5 C5          0.1979    0.7192    0.4647 CT        1 <0>        0.34179
      6 O1         -0.6511   -1.9736   -0.0795 OH        1 <0>       -0.61220
      7 O2          1.8290   -0.1577   -1.7496 OH        1 <0>       -0.62671
      8 O3         -0.7233   -0.0272    1.2627 OS        1 <0>       -0.43251
      9 O4         -0.1995    0.7435   -0.9121 OS        1 <0>       -0.48806
     10 H1         -0.1959    0.0202   -3.4520 HC        1 <0>        0.05696
     11 H2         -0.3548    1.7953   -3.3454 HC        1 <0>        0.05696
     12 H3          1.1333    1.0676   -3.9557 HC        1 <0>        0.05696
     13 H4         -0.7960    2.6088    0.8927 HC        1 <0>        0.05514
     14 H5          0.8653    2.7750    0.3225 HC        1 <0>        0.05514
     15 H6          0.5684    2.2316    1.9757 HC        1 <0>        0.05514
     16 H7          0.5061   -1.6737    1.5924 H2        1 <0>        0.05579
     17 H8         -1.2198   -1.9145    1.8898 H2        1 <0>        0.05579
     18 H9          1.4169    1.8620   -1.6096 H2        1 <0>        0.07580
     19 H10         1.2139    0.3102    0.5335 H2        1 <0>        0.04771
     20 H11        -0.4801   -2.9287   -0.0160 HO        1 <0>        0.41638
     21 H12         2.5197    0.0256   -2.4086 HO        1 <0>        0.40999
@<TRIPOS>BOND
     1    1    4 1
     2    2    5 1
     3    3    6 1
     4    3    8 1
     5    4    7 1
     6    4    9 1
     7    5    8 1
     8    5    9 1
     9    1   10 1
    10    1   11 1
    11    1   12 1
    12    2   13 1
    13    2   14 1
    14    2   15 1
    15    3   16 1
    16    3   17 1
    17    4   18 1
    18    5   19 1
    19    6   20 1
    20    7   21 1
@<TRIPOS>SUBSTRUCTURE
     1 <0>         1 GROUP 0 A     ****
