@<TRIPOS>MOLECULE
AlkEthOH_c98
   16    15     1     0     0
SMALL
USER_CHARGES

@<TRIPOS>ATOM
      1 C1         -0.9580    0.4865   -0.2069 CT        1 <0>       -0.12837
      2 C2         -0.3464    1.5071   -3.9242 CT        1 <0>       -0.12831
      3 C3         -1.2082    0.6003   -1.7062 CT        1 <0>        0.14705
      4 C4         -0.0897    1.3641   -2.4285 CT        1 <0>        0.14705
      5 O1         -2.4512    1.2688   -1.9113 OH        1 <0>       -0.59275
      6 O2          0.0622    2.6680   -1.8708 OH        1 <0>       -0.59275
      7 H1         -0.8638    1.4734    0.2586 HC        1 <0>        0.04801
      8 H2         -0.0528   -0.0917    0.0019 HC        1 <0>        0.04801
      9 H3         -1.8045   -0.0072    0.2828 HC        1 <0>        0.04801
     10 H4         -1.2892    2.0277   -4.1165 HC        1 <0>        0.04801
     11 H5          0.4647    2.0503   -4.4210 HC        1 <0>        0.04801
     12 H6         -0.3916    0.5194   -4.3961 HC        1 <0>        0.04801
     13 H7         -1.2970   -0.4034   -2.1378 H1        1 <0>        0.02909
     14 H8          0.8607    0.8393   -2.2807 H1        1 <0>        0.02909
     15 H9         -3.1297    0.7265   -1.4808 HO        1 <0>        0.40092
     16 H10         0.8177    3.0742   -2.3225 HO        1 <0>        0.40092
@<TRIPOS>BOND
     1    1    3 1
     2    2    4 1
     3    3    4 1
     4    3    5 1
     5    4    6 1
     6    1    7 1
     7    1    8 1
     8    1    9 1
     9    2   10 1
    10    2   11 1
    11    2   12 1
    12    3   13 1
    13    4   14 1
    14    5   15 1
    15    6   16 1
@<TRIPOS>SUBSTRUCTURE
     1 <0>         1 GROUP 0 A     ****
