@<TRIPOS>MOLECULE
AlkEthOH_r1136
   17    17     1     0     0
SMALL
USER_CHARGES

@<TRIPOS>ATOM
      1 C1          0.7112   -0.0892   -0.8268 CT        1 <0>       -0.15028
      2 C2          0.2254   -1.1002   -1.8570 CT        1 <0>        0.13018
      3 C3          2.0916   -0.4829   -0.3180 CT        1 <0>        0.13018
      4 C4          2.4657   -1.6449   -2.3305 CT        1 <0>        0.32529
      5 C5          3.4544   -1.7774   -3.4762 CT        1 <0>       -0.08491
      6 O1          1.2043   -1.2593   -2.8834 OS        1 <0>       -0.43598
      7 O2          2.9813   -0.6719   -1.4178 OS        1 <0>       -0.43598
      8 H1          0.7917    0.8891   -1.3166 HC        1 <0>        0.06139
      9 H2          0.0001   -0.0000    0.0000 HC        1 <0>        0.06139
     10 H3          0.0242   -2.0739   -1.3950 H1        1 <0>        0.05010
     11 H4         -0.7019   -0.7528   -2.3230 H1        1 <0>        0.05010
     12 H5          2.5020    0.3064    0.3193 H1        1 <0>        0.05010
     13 H6          2.0490   -1.4039    0.2749 H1        1 <0>        0.05010
     14 H7          2.3703   -2.6154   -1.8260 H2        1 <0>        0.03152
     15 H8          3.5643   -0.8218   -3.9921 HC        1 <0>        0.05560
     16 H9          3.1046   -2.5235   -4.1919 HC        1 <0>        0.05560
     17 H10         4.4310   -2.0855   -3.0979 HC        1 <0>        0.05560
@<TRIPOS>BOND
     1    1    2 1
     2    1    3 1
     3    2    6 1
     4    3    7 1
     5    4    5 1
     6    4    6 1
     7    4    7 1
     8    1    8 1
     9    1    9 1
    10    2   10 1
    11    2   11 1
    12    3   12 1
    13    3   13 1
    14    4   14 1
    15    5   15 1
    16    5   16 1
    17    5   17 1
@<TRIPOS>SUBSTRUCTURE
     1 <0>         1 GROUP 0 A     ****
