@<TRIPOS>MOLECULE
AlkEthOH_r565
   21    21     1     0     0
SMALL
USER_CHARGES

@<TRIPOS>ATOM
      1 C1         -1.2305    0.4187    0.2765 CT        1 <0>       -0.16763
      2 C2         -1.4283   -1.0392   -0.1189 CT        1 <0>        0.13512
      3 C3          0.7074   -1.9595    0.4591 CT        1 <0>        0.09325
      4 C4          1.4082   -0.6259    0.6697 CT        1 <0>        0.10145
      5 C5          0.0215    1.0842   -0.3292 CT        1 <0>        0.34290
      6 C6         -0.2770    1.5867   -1.7461 CT        1 <0>       -0.11495
      7 O1         -0.6863   -1.8976    0.7450 OS        1 <0>       -0.41823
      8 O2          1.1500    0.2169   -0.4464 OS        1 <0>       -0.40379
      9 O3          0.3351    2.2157    0.4903 OH        1 <0>       -0.61668
     10 H1         -2.1153    1.0026   -0.0080 HC        1 <0>        0.06487
     11 H2         -1.1804    0.4843    1.3720 HC        1 <0>        0.06487
     12 H3         -2.4820   -1.2991    0.0293 H1        1 <0>        0.05381
     13 H4         -1.1911   -1.2383   -1.1696 H1        1 <0>        0.05381
     14 H5          0.8463   -2.3292   -0.5635 H1        1 <0>        0.05668
     15 H6          1.1318   -2.6997    1.1449 H1        1 <0>        0.05668
     16 H7          1.1278   -0.1432    1.6121 H1        1 <0>        0.06629
     17 H8          2.4895   -0.7962    0.6861 H1        1 <0>        0.06629
     18 H9          0.6126    2.0532   -2.1615 HC        1 <0>        0.05282
     19 H10        -1.0834    2.3146   -1.7114 HC        1 <0>        0.05282
     20 H11        -0.5725    0.7501   -2.3740 HC        1 <0>        0.05282
     21 H12        -0.4390    2.7957    0.4566 HO        1 <0>        0.40680
@<TRIPOS>BOND
     1    1    2 1
     2    1    5 1
     3    2    7 1
     4    3    4 1
     5    3    7 1
     6    4    8 1
     7    5    6 1
     8    5    8 1
     9    5    9 1
    10    1   10 1
    11    1   11 1
    12    2   12 1
    13    2   13 1
    14    3   14 1
    15    3   15 1
    16    4   16 1
    17    4   17 1
    18    6   18 1
    19    6   19 1
    20    6   20 1
    21    9   21 1
@<TRIPOS>SUBSTRUCTURE
     1 <0>         1 GROUP 0 A     ****
