@<TRIPOS>MOLECULE
AlkEthOH_c135
   23    22     1     0     0
SMALL
USER_CHARGES

@<TRIPOS>ATOM
      1 C1         -0.7123    2.0293   -0.5968 CT        1 <0>       -0.11943
      2 C2         -2.1131    0.9024    1.1463 CT        1 <0>       -0.11943
      3 C3          1.1953   -0.3483   -0.5930 CT        1 <0>       -0.12279
      4 C4          2.1867   -1.4510   -0.2296 CT        1 <0>        0.13120
      5 C5          0.1489   -0.0962    0.5043 CT        1 <0>        0.15670
      6 C6         -1.1032    0.6767    0.0154 CT        1 <0>        0.15670
      7 O1          3.0960   -1.6215   -1.3097 OH        1 <0>       -0.59702
      8 O2          0.7623    0.6554    1.5556 OH        1 <0>       -0.60466
      9 O3         -1.7461   -0.0923   -1.0056 OH        1 <0>       -0.60612
     10 H1          0.0105    1.9065   -1.4109 HC        1 <0>        0.04687
     11 H2         -1.5841    2.5228   -1.0422 HC        1 <0>        0.04687
     12 H3         -0.2844    2.7004    0.1549 HC        1 <0>        0.04687
     13 H4         -2.4176   -0.0414    1.6099 HC        1 <0>        0.04687
     14 H5         -1.7092    1.5634    1.9198 HC        1 <0>        0.04687
     15 H6         -3.0355    1.3520    0.7596 HC        1 <0>        0.04687
     16 H7          1.7663    0.5671   -0.7932 HC        1 <0>        0.07770
     17 H8          0.7104   -0.6210   -1.5365 HC        1 <0>        0.07770
     18 H9          1.6687   -2.4000   -0.0593 H1        1 <0>        0.01767
     19 H10         2.7639   -1.1913    0.6627 H1        1 <0>        0.01767
     20 H11        -0.1722   -1.0538    0.9336 H1        1 <0>        0.04550
     21 H12         3.7105   -2.3262   -1.0489 HO        1 <0>        0.39992
     22 H13         1.4955    0.1145    1.8831 HO        1 <0>        0.40368
     23 H14        -2.5222    0.4174   -1.2799 HO        1 <0>        0.40379
@<TRIPOS>BOND
     1    1    6 1
     2    2    6 1
     3    3    4 1
     4    3    5 1
     5    4    7 1
     6    5    6 1
     7    5    8 1
     8    6    9 1
     9    1   10 1
    10    1   11 1
    11    1   12 1
    12    2   13 1
    13    2   14 1
    14    2   15 1
    15    3   16 1
    16    3   17 1
    17    4   18 1
    18    4   19 1
    19    5   20 1
    20    7   21 1
    21    8   22 1
    22    9   23 1
@<TRIPOS>SUBSTRUCTURE
     1 <0>         1 GROUP 0 A     ****
