@<TRIPOS>MOLECULE
AlkEthOH_r459
   19    19     1     0     0
SMALL
USER_CHARGES

@<TRIPOS>ATOM
      1 C1         -1.0150    0.4023   -0.0544 CT        1 <0>       -0.11152
      2 C2         -2.0014   -0.5329   -0.7102 CT        1 <0>       -0.10430
      3 C3         -1.6398    0.6087    1.3069 CT        1 <0>        0.12529
      4 C4         -3.3419   -0.0432   -0.1625 CT        1 <0>        0.14520
      5 C5         -4.3361   -1.1864    0.0185 CT        1 <0>       -0.09632
      6 C6         -3.9518    1.0543   -1.0383 CT        1 <0>       -0.09632
      7 O1         -3.0610    0.5330    1.1292 OS        1 <0>       -0.42585
      8 H1          0.0000   -0.0000    0.0002 HC        1 <0>        0.05396
      9 H2         -0.9756    1.3514   -0.6012 HC        1 <0>        0.05396
     10 H3         -1.9426   -0.5219   -1.8028 HC        1 <0>        0.05504
     11 H4         -1.7949   -1.5575   -0.3759 HC        1 <0>        0.05504
     12 H5         -1.3477   -0.1869    2.0008 H1        1 <0>        0.04529
     13 H6         -1.3743    1.5726    1.7497 H1        1 <0>        0.04529
     14 H7         -5.2770   -0.8009    0.4092 HC        1 <0>        0.04254
     15 H8         -3.9348   -1.9193    0.7172 HC        1 <0>        0.04254
     16 H9         -4.5209   -1.6718   -0.9390 HC        1 <0>        0.04254
     17 H10        -4.9014    1.3740   -0.6153 HC        1 <0>        0.04254
     18 H11        -4.1166    0.6710   -2.0427 HC        1 <0>        0.04254
     19 H12        -3.2744    1.9040   -1.0843 HC        1 <0>        0.04254
@<TRIPOS>BOND
     1    1    2 1
     2    1    3 1
     3    2    4 1
     4    3    7 1
     5    4    5 1
     6    4    6 1
     7    4    7 1
     8    1    8 1
     9    1    9 1
    10    2   10 1
    11    2   11 1
    12    3   12 1
    13    3   13 1
    14    5   14 1
    15    5   15 1
    16    5   16 1
    17    6   17 1
    18    6   18 1
    19    6   19 1
@<TRIPOS>SUBSTRUCTURE
     1 <0>         1 GROUP 0 A     ****
