@<TRIPOS>MOLECULE
AlkEthOH_r787
   31    31     1     0     0
SMALL
USER_CHARGES

@<TRIPOS>ATOM
      1 C1          0.8798    1.7924   -0.6631 CT        1 <0>       -0.10948
      2 C2          1.2293    0.3777   -1.1419 CT        1 <0>       -0.06595
      3 C3          0.1338   -0.6990    0.9909 CT        1 <0>       -0.06436
      4 C4         -0.5882    2.1794   -0.8539 CT        1 <0>        0.13392
      5 C5         -1.8147    0.1660   -0.4677 CT        1 <0>        0.13210
      6 C6         -1.3166   -0.9046    0.5075 CT        1 <0>       -0.07751
      7 C7          1.2783   -0.7351   -0.0583 CT        1 <0>       -0.04818
      8 C8         -2.2380   -0.9408    1.7382 CT        1 <0>       -0.09035
      9 C9          1.2987   -2.1026   -0.7722 CT        1 <0>       -0.08843
     10 C10         2.6114   -0.5999    0.7199 CT        1 <0>       -0.08843
     11 O1         -1.4737    1.4665    0.0008 OS        1 <0>       -0.41961
     12 H1          1.1722    1.9348    0.3820 HC        1 <0>        0.04921
     13 H2          1.4763    2.5011   -1.2517 HC        1 <0>        0.04921
     14 H3          0.5717    0.0904   -1.9694 HC        1 <0>        0.03664
     15 H4          2.2247    0.4304   -1.6070 HC        1 <0>        0.03664
     16 H5          0.1937    0.2343    1.5661 HC        1 <0>        0.04689
     17 H6          0.3402   -1.4894    1.7281 HC        1 <0>        0.04689
     18 H7         -0.6942    3.2380   -0.5910 H1        1 <0>        0.04285
     19 H8         -0.9001    2.0878   -1.9013 H1        1 <0>        0.04285
     20 H9         -1.4509   -0.0243   -1.4814 H1        1 <0>        0.03933
     21 H10        -2.9080    0.1256   -0.5404 H1        1 <0>        0.03933
     22 H11        -1.4067   -1.8821    0.0193 HC        1 <0>        0.04711
     23 H12        -2.1818    0.0110    2.2564 HC        1 <0>        0.03593
     24 H13        -1.9179   -1.7372    2.4023 HC        1 <0>        0.03593
     25 H14        -3.2587   -1.1217    1.4167 HC        1 <0>        0.03593
     26 H15         1.3329   -2.8895   -0.0280 HC        1 <0>        0.03359
     27 H16         2.1753   -2.1571   -1.4069 HC        1 <0>        0.03359
     28 H17         0.4020   -2.2015   -1.3726 HC        1 <0>        0.03359
     29 H18         2.6515   -1.3721    1.4760 HC        1 <0>        0.03359
     30 H19         2.6458    0.3774    1.1816 HC        1 <0>        0.03359
     31 H20         3.4319   -0.7143    0.0248 HC        1 <0>        0.03359
@<TRIPOS>BOND
     1    1    2 1
     2    1    4 1
     3    2    7 1
     4    3    6 1
     5    3    7 1
     6    4   11 1
     7    5    6 1
     8    5   11 1
     9    6    8 1
    10    7    9 1
    11    7   10 1
    12    1   12 1
    13    1   13 1
    14    2   14 1
    15    2   15 1
    16    3   16 1
    17    3   17 1
    18    4   18 1
    19    4   19 1
    20    5   20 1
    21    5   21 1
    22    6   22 1
    23    8   23 1
    24    8   24 1
    25    8   25 1
    26    9   26 1
    27    9   27 1
    28    9   28 1
    29   10   29 1
    30   10   30 1
    31   10   31 1
@<TRIPOS>SUBSTRUCTURE
     1 <0>         1 GROUP 0 A     ****
