@<TRIPOS>MOLECULE
AlkEthOH_r126
   17    17     1     0     0
SMALL
USER_CHARGES

@<TRIPOS>ATOM
      1 C1         -1.5962   -0.1752   -0.5219 CT        1 <0>        0.10586
      2 C2         -0.7376   -1.1350   -1.3302 CT        1 <0>        0.10594
      3 C3         -0.1444    0.7650    1.1271 CT        1 <0>        0.54713
      4 C4          1.3378   -0.2617   -0.4766 CT        1 <0>        0.54713
      5 O1         -1.1544   -0.2012    0.8308 OS        1 <0>       -0.44995
      6 O2          0.5515   -0.6062   -1.6226 OS        1 <0>       -0.44995
      7 O3          0.8978    0.9361    0.1653 OS        1 <0>       -0.51174
      8 O4         -0.7397    2.0310    1.4198 OH        1 <0>       -0.63053
      9 O5          1.5852   -1.3529    0.4083 OH        1 <0>       -0.63053
     10 H1         -1.5817    0.8432   -0.9262 H1        1 <0>        0.06648
     11 H2         -2.6308   -0.5322   -0.5237 H1        1 <0>        0.06648
     12 H3         -0.6203   -2.0957   -0.8162 H1        1 <0>        0.06648
     13 H4         -1.2209   -1.3285   -2.2931 H1        1 <0>        0.06648
     14 H5          0.3334    0.4233    2.0523 H3        1 <0>        0.11510
     15 H6          2.3114    0.0069   -0.9000 H3        1 <0>        0.11510
     16 H7         -0.0092    2.6377    1.6107 HO        1 <0>        0.43526
     17 H8          2.0607   -2.0223   -0.1070 HO        1 <0>        0.43526
@<TRIPOS>BOND
     1    1    2 1
     2    1    5 1
     3    2    6 1
     4    3    5 1
     5    3    7 1
     6    3    8 1
     7    4    6 1
     8    4    7 1
     9    4    9 1
    10    1   10 1
    11    1   11 1
    12    2   12 1
    13    2   13 1
    14    3   14 1
    15    4   15 1
    16    8   16 1
    17    9   17 1
@<TRIPOS>SUBSTRUCTURE
     1 <0>         1 GROUP 0 A     ****
