@<TRIPOS>MOLECULE
AlkEthOH_r761
   24    24     1     0     0
SMALL
USER_CHARGES

@<TRIPOS>ATOM
      1 C1         -0.9413   -0.7986   -2.0086 CT        1 <0>        0.09415
      2 C2          0.5027   -0.3322   -2.0961 CT        1 <0>        0.09534
      3 C3         -1.5054   -0.2184    0.2160 CT        1 <0>        0.10090
      4 C4          1.0492    0.1551    0.1727 CT        1 <0>        0.15900
      5 C5         -0.2468    0.1451    1.0212 CT        1 <0>        0.10547
      6 C6          2.1674    1.0093    0.7729 CT        1 <0>       -0.08957
      7 C7         -0.0812   -0.8182    2.2068 CT        1 <0>       -0.12327
      8 O1         -1.2771   -1.2782   -0.7080 OS        1 <0>       -0.41012
      9 O2          0.8021    0.6828   -1.1387 OS        1 <0>       -0.40499
     10 O3         -0.4695    1.4534    1.5619 OH        1 <0>       -0.58563
     11 H1         -1.6322   -0.0001   -2.3037 H1        1 <0>        0.05522
     12 H2         -1.0913   -1.6259   -2.7102 H1        1 <0>        0.05522
     13 H3          1.1976   -1.1731   -1.9866 H1        1 <0>        0.05347
     14 H4          0.6768    0.0966   -3.0886 H1        1 <0>        0.05347
     15 H5         -2.2995   -0.5479    0.8973 H1        1 <0>        0.05615
     16 H6         -1.9207    0.6646   -0.2885 H1        1 <0>        0.05615
     17 H7          1.4359   -0.8669    0.0900 H1        1 <0>        0.04764
     18 H8          1.8289    2.0383    0.8749 HC        1 <0>        0.04933
     19 H9          3.0395    0.9818    0.1228 HC        1 <0>        0.04933
     20 H10         2.4388    0.6225    1.7531 HC        1 <0>        0.04933
     21 H11         0.8100   -0.5501    2.7655 HC        1 <0>        0.04613
     22 H12         0.0139   -1.8332    1.8342 HC        1 <0>        0.04613
     23 H13        -0.9512   -0.7466    2.8519 HC        1 <0>        0.04613
     24 H14        -1.2566    1.3826    2.1202 HO        1 <0>        0.39502
@<TRIPOS>BOND
     1    1    2 1
     2    1    8 1
     3    2    9 1
     4    3    5 1
     5    3    8 1
     6    4    5 1
     7    4    6 1
     8    4    9 1
     9    5    7 1
    10    5   10 1
    11    1   11 1
    12    1   12 1
    13    2   13 1
    14    2   14 1
    15    3   15 1
    16    3   16 1
    17    4   17 1
    18    6   18 1
    19    6   19 1
    20    6   20 1
    21    7   21 1
    22    7   22 1
    23    7   23 1
    24   10   24 1
@<TRIPOS>SUBSTRUCTURE
     1 <0>         1 GROUP 0 A     ****
