@<TRIPOS>MOLECULE
AlkEthOH_r415
   34    34     1     0     0
SMALL
USER_CHARGES

@<TRIPOS>ATOM
      1 C1         -0.3376    1.1372    1.9557 CT        1 <0>       -0.07057
      2 C2         -0.7208   -0.2522    2.4732 CT        1 <0>       -0.09749
      3 C3          0.8800    1.1549    1.0199 CT        1 <0>       -0.06779
      4 C4         -0.4046    0.2971   -1.0957 CT        1 <0>       -0.08560
      5 C5         -1.2194   -1.1925    1.3856 CT        1 <0>        0.13342
      6 C6          0.5909    1.3358   -0.4943 CT        1 <0>       -0.03731
      7 C7         -0.2292   -1.2260   -0.8426 CT        1 <0>        0.16159
      8 C8         -0.0165    2.7432   -0.7399 CT        1 <0>       -0.09128
      9 C9          1.9404    1.3254   -1.2463 CT        1 <0>       -0.09128
     10 C10         1.0571   -1.7765   -1.4737 CT        1 <0>       -0.10490
     11 C11        -1.4062   -1.9887   -1.4869 CT        1 <0>       -0.10490
     12 O1         -0.1339   -1.5576    0.5451 OS        1 <0>       -0.42015
     13 H1         -1.2118    1.6126    1.5015 HC        1 <0>        0.03626
     14 H2         -0.0894    1.7452    2.8357 HC        1 <0>        0.03626
     15 H3          0.1451   -0.6962    2.9793 HC        1 <0>        0.04671
     16 H4         -1.5105   -0.1348    3.2248 HC        1 <0>        0.04671
     17 H5          1.5154    1.9951    1.3358 HC        1 <0>        0.04824
     18 H6          1.4980    0.2642    1.1862 HC        1 <0>        0.04824
     19 H7         -1.4070    0.5763   -0.7445 HC        1 <0>        0.04149
     20 H8         -0.4441    0.4546   -2.1837 HC        1 <0>        0.04149
     21 H9         -1.5827   -2.1137    1.8536 H1        1 <0>        0.03698
     22 H10        -2.0633   -0.7490    0.8503 H1        1 <0>        0.03698
     23 H11        -0.2120    2.8538   -1.7968 HC        1 <0>        0.03346
     24 H12         0.6941    3.4869   -0.4091 HC        1 <0>        0.03346
     25 H13        -0.9353    2.8242   -0.1770 HC        1 <0>        0.03346
     26 H14         1.7534    1.4508   -2.3056 HC        1 <0>        0.03346
     27 H15         2.4352    0.3789   -1.0672 HC        1 <0>        0.03346
     28 H16         2.5534    2.1392   -0.8794 HC        1 <0>        0.03346
     29 H17         1.1332   -2.8406   -1.2694 HC        1 <0>        0.04269
     30 H18         1.9158   -1.2637   -1.0501 HC        1 <0>        0.04269
     31 H19         1.0310   -1.6143   -2.5475 HC        1 <0>        0.04269
     32 H20        -1.2795   -3.0497   -1.3079 HC        1 <0>        0.04269
     33 H21        -1.4129   -1.7923   -2.5523 HC        1 <0>        0.04269
     34 H22        -2.3335   -1.6473   -1.0425 HC        1 <0>        0.04269
@<TRIPOS>BOND
     1    1    2 1
     2    1    3 1
     3    2    5 1
     4    3    6 1
     5    4    6 1
     6    4    7 1
     7    5   12 1
     8    6    8 1
     9    6    9 1
    10    7   10 1
    11    7   11 1
    12    7   12 1
    13    1   13 1
    14    1   14 1
    15    2   15 1
    16    2   16 1
    17    3   17 1
    18    3   18 1
    19    4   19 1
    20    4   20 1
    21    5   21 1
    22    5   22 1
    23    8   23 1
    24    8   24 1
    25    8   25 1
    26    9   26 1
    27    9   27 1
    28    9   28 1
    29   10   29 1
    30   10   30 1
    31   10   31 1
    32   11   32 1
    33   11   33 1
    34   11   34 1
@<TRIPOS>SUBSTRUCTURE
     1 <0>         1 GROUP 0 A     ****
