@<TRIPOS>MOLECULE
AlkEthOH_r38
   16    16     1     0     0
SMALL
USER_CHARGES

@<TRIPOS>ATOM
      1 C1          0.3046   -0.0385    1.0510 CT        1 <0>       -0.07827
      2 C2         -0.5073   -1.0667    1.8391 CT        1 <0>       -0.07827
      3 C3          1.7686   -0.4549    1.1854 CT        1 <0>       -0.09852
      4 C4          0.4994   -2.0828    2.3727 CT        1 <0>       -0.09852
      5 C5          1.8081   -1.3103    2.4423 CT        1 <0>        0.14011
      6 O1          1.8253   -0.4673    3.5876 OH        1 <0>       -0.60439
      7 H1          0.0008    0.0002   -0.0001 HC        1 <0>        0.04278
      8 H2          0.1486    0.9609    1.4731 HC        1 <0>        0.04278
      9 H3         -1.0253   -0.5720    2.6691 HC        1 <0>        0.04278
     10 H4         -1.2699   -1.5476    1.2182 HC        1 <0>        0.04278
     11 H5          2.0582   -1.0539    0.3140 HC        1 <0>        0.05130
     12 H6          2.4240    0.4196    1.2421 HC        1 <0>        0.05130
     13 H7          0.1834   -2.4804    3.3419 HC        1 <0>        0.05130
     14 H8          0.5906   -2.9149    1.6647 HC        1 <0>        0.05130
     15 H9          2.6859   -1.9620    2.4746 H1        1 <0>        0.04158
     16 H10         1.8503   -1.0504    4.3632 HO        1 <0>        0.39996
@<TRIPOS>BOND
     1    1    2 1
     2    1    3 1
     3    2    4 1
     4    3    5 1
     5    4    5 1
     6    5    6 1
     7    1    7 1
     8    1    8 1
     9    2    9 1
    10    2   10 1
    11    3   11 1
    12    3   12 1
    13    4   13 1
    14    4   14 1
    15    5   15 1
    16    6   16 1
@<TRIPOS>SUBSTRUCTURE
     1 <0>         1 GROUP 0 A     ****
