@<TRIPOS>MOLECULE
AlkEthOH_r489
   29    29     1     0     0
SMALL
USER_CHARGES

@<TRIPOS>ATOM
      1 C1         -0.1634    0.9505    2.0311 CT        1 <0>       -0.10000
      2 C2         -0.3140   -0.5055    1.5956 CT        1 <0>       -0.06619
      3 C3         -0.5767    1.9674    0.9839 CT        1 <0>        0.12684
      4 C4          0.1352    1.2416   -1.1927 CT        1 <0>        0.11264
      5 C5          0.3696   -0.9551    0.2666 CT        1 <0>       -0.02107
      6 C6         -0.2592   -0.2438   -0.9947 CT        1 <0>        0.13135
      7 C7          0.1468   -2.4938    0.1990 CT        1 <0>       -0.09408
      8 C8          1.8970   -0.7431    0.3463 CT        1 <0>       -0.09408
      9 C9          0.0487   -0.9615   -2.3268 CT        1 <0>       -0.12871
     10 O1          0.4102    2.0067   -0.0293 OS        1 <0>       -0.41621
     11 O2         -1.6941   -0.2633   -0.8789 OH        1 <0>       -0.60070
     12 H1         -0.7725    1.1013    2.9306 HC        1 <0>        0.04657
     13 H2          0.8790    1.1274    2.3226 HC        1 <0>        0.04657
     14 H3          0.0749   -1.1205    2.4195 HC        1 <0>        0.04705
     15 H4         -1.3864   -0.7381    1.5498 HC        1 <0>        0.04705
     16 H5         -1.5825    1.7955    0.5875 H1        1 <0>        0.05128
     17 H6         -0.5853    2.9583    1.4509 H1        1 <0>        0.05128
     18 H7          1.0533    1.2990   -1.7891 H1        1 <0>        0.04403
     19 H8         -0.6404    1.7705   -1.7614 H1        1 <0>        0.04403
     20 H9          0.6020   -2.8640   -0.7070 HC        1 <0>        0.03978
     21 H10        -0.9156   -2.6838    0.1940 HC        1 <0>        0.03978
     22 H11         0.6080   -2.9427    1.0655 HC        1 <0>        0.03978
     23 H12         2.3461   -1.0623   -0.5862 HC        1 <0>        0.03978
     24 H13         2.2917   -1.3301    1.1666 HC        1 <0>        0.03978
     25 H14         2.0985    0.3080    0.5132 HC        1 <0>        0.03978
     26 H15        -0.2136   -2.0081   -2.2318 HC        1 <0>        0.04571
     27 H16         1.1053   -0.8635   -2.5437 HC        1 <0>        0.04571
     28 H17        -0.5350   -0.5042   -3.1164 HC        1 <0>        0.04571
     29 H18        -2.0285    0.1054   -1.7065 HO        1 <0>        0.39654
@<TRIPOS>BOND
     1    1    2 1
     2    1    3 1
     3    2    5 1
     4    3   10 1
     5    4    6 1
     6    4   10 1
     7    5    6 1
     8    5    7 1
     9    5    8 1
    10    6    9 1
    11    6   11 1
    12    1   12 1
    13    1   13 1
    14    2   14 1
    15    2   15 1
    16    3   16 1
    17    3   17 1
    18    4   18 1
    19    4   19 1
    20    7   20 1
    21    7   21 1
    22    7   22 1
    23    8   23 1
    24    8   24 1
    25    8   25 1
    26    9   26 1
    27    9   27 1
    28    9   28 1
    29   11   29 1
@<TRIPOS>SUBSTRUCTURE
     1 <0>         1 GROUP 0 A     ****
