@<TRIPOS>MOLECULE
AlkEthOH_r963
   23    23     1     0     0
SMALL
USER_CHARGES

@<TRIPOS>ATOM
      1 C1          1.7752    0.2700   -1.0238 CT        1 <0>       -0.10449
      2 C2          0.5996   -0.5243   -1.5978 CT        1 <0>       -0.10157
      3 C3          1.3674    1.4220   -0.1149 CT        1 <0>        0.13737
      4 C4         -0.3951   -1.0191   -0.5419 CT        1 <0>        0.14919
      5 C5         -0.5957    0.7704    1.0667 CT        1 <0>        0.33911
      6 C6         -1.3922   -1.9869   -1.1709 CT        1 <0>       -0.09694
      7 C7         -1.0323    0.0725    2.3485 CT        1 <0>       -0.11440
      8 O1          0.8244    0.9039    1.0940 OS        1 <0>       -0.45195
      9 O2         -1.1514    0.0916   -0.0600 OS        1 <0>       -0.45531
     10 H1          2.4138   -0.4214   -0.4598 HC        1 <0>        0.04982
     11 H2          2.3733    0.6601   -1.8554 HC        1 <0>        0.04982
     12 H3          0.0754    0.1154   -2.3197 HC        1 <0>        0.04895
     13 H4          1.0066   -1.3765   -2.1555 HC        1 <0>        0.04895
     14 H5          2.2644    1.9885    0.1572 H1        1 <0>        0.04961
     15 H6          0.6767    2.1167   -0.6072 H1        1 <0>        0.04961
     16 H7          0.1215   -1.5363    0.2752 H1        1 <0>        0.05441
     17 H8         -1.0289    1.7774    1.0714 H2        1 <0>        0.06270
     18 H9         -1.9205   -1.4966   -1.9879 HC        1 <0>        0.04316
     19 H10        -2.1161   -2.3112   -0.4241 HC        1 <0>        0.04316
     20 H11        -0.8679   -2.8592   -1.5598 HC        1 <0>        0.04316
     21 H12        -0.6206   -0.9363    2.3828 HC        1 <0>        0.05188
     22 H13        -2.1200    0.0119    2.3883 HC        1 <0>        0.05188
     23 H14        -0.6770    0.6291    3.2159 HC        1 <0>        0.05188
@<TRIPOS>BOND
     1    1    2 1
     2    1    3 1
     3    2    4 1
     4    3    8 1
     5    4    6 1
     6    4    9 1
     7    5    7 1
     8    5    8 1
     9    5    9 1
    10    1   10 1
    11    1   11 1
    12    2   12 1
    13    2   13 1
    14    3   14 1
    15    3   15 1
    16    4   16 1
    17    5   17 1
    18    6   18 1
    19    6   19 1
    20    6   20 1
    21    7   21 1
    22    7   22 1
    23    7   23 1
@<TRIPOS>SUBSTRUCTURE
     1 <0>         1 GROUP 0 A     ****
