@<TRIPOS>MOLECULE
AlkEthOH_r140
   18    18     1     0     0
SMALL
USER_CHARGES

@<TRIPOS>ATOM
      1 C1         -1.2632    1.2694   -0.4478 CT        1 <0>       -0.14658
      2 C2         -1.9095    0.0175    0.1418 CT        1 <0>        0.12384
      3 C3          0.1245    1.5616    0.1032 CT        1 <0>        0.13525
      4 C4         -0.0492   -1.3574   -0.4784 CT        1 <0>        0.11464
      5 C5          1.2319   -0.5527   -0.2697 CT        1 <0>        0.30357
      6 O1         -1.0061   -1.0126    0.5171 OS        1 <0>       -0.39539
      7 O2          1.1168    0.8267   -0.6075 OS        1 <0>       -0.45757
      8 O3          1.7549   -0.7525    1.0413 OH        1 <0>       -0.60673
      9 H1         -1.1980    1.1520   -1.5368 HC        1 <0>        0.05682
     10 H2         -1.9307    2.1190   -0.2627 HC        1 <0>        0.05682
     11 H3         -2.4563    0.2929    1.0505 H1        1 <0>        0.04698
     12 H4         -2.6502   -0.3908   -0.5556 H1        1 <0>        0.04698
     13 H5          0.3505    2.6190   -0.0712 H1        1 <0>        0.06038
     14 H6          0.1978    1.3911    1.1831 H1        1 <0>        0.06038
     15 H7         -0.4620   -1.2288   -1.4852 H1        1 <0>        0.06251
     16 H8          0.1712   -2.4201   -0.3313 H1        1 <0>        0.06251
     17 H9          1.9837   -0.9590   -0.9733 H2        1 <0>        0.06471
     18 H10         2.5604   -0.2160    1.1018 HO        1 <0>        0.41088
@<TRIPOS>BOND
     1    1    2 1
     2    1    3 1
     3    2    6 1
     4    3    7 1
     5    4    5 1
     6    4    6 1
     7    5    7 1
     8    5    8 1
     9    1    9 1
    10    1   10 1
    11    2   11 1
    12    2   12 1
    13    3   13 1
    14    3   14 1
    15    4   15 1
    16    4   16 1
    17    5   17 1
    18    8   18 1
@<TRIPOS>SUBSTRUCTURE
     1 <0>         1 GROUP 0 A     ****
