@<TRIPOS>MOLECULE
AlkEthOH_r474
   22    22     1     0     0
SMALL
USER_CHARGES

@<TRIPOS>ATOM
      1 C1          0.8686    1.0560   -1.1955 CT        1 <0>       -0.11065
      2 C2          0.9221   -0.4356   -0.8711 CT        1 <0>       -0.06942
      3 C3          0.7054    1.8813    0.0729 CT        1 <0>        0.12627
      4 C4         -0.3082    0.0956    1.2530 CT        1 <0>        0.13321
      5 C5         -0.2286   -0.8756    0.0597 CT        1 <0>       -0.08560
      6 C6         -1.5654   -0.8725   -0.7068 CT        1 <0>       -0.08479
      7 C7          0.0391   -2.2997    0.5708 CT        1 <0>       -0.08479
      8 O1         -0.4329    1.4506    0.8169 OS        1 <0>       -0.41259
      9 H1          1.7763    1.3587   -1.7285 HC        1 <0>        0.04986
     10 H2          0.0225    1.2482   -1.8652 HC        1 <0>        0.04986
     11 H3          0.9136   -1.0167   -1.8013 HC        1 <0>        0.04204
     12 H4          1.8842   -0.6442   -0.3839 HC        1 <0>        0.04204
     13 H5          1.5992    1.8198    0.7051 H1        1 <0>        0.04507
     14 H6          0.5570    2.9346   -0.1854 H1        1 <0>        0.04507
     15 H7         -1.1816   -0.1300    1.8753 H1        1 <0>        0.04651
     16 H8          0.5754    0.0108    1.8984 H1        1 <0>        0.04651
     17 H9         -2.3596   -1.1837   -0.0375 HC        1 <0>        0.03690
     18 H10        -1.4980   -1.5609   -1.5417 HC        1 <0>        0.03690
     19 H11        -1.7637    0.1291   -1.0715 HC        1 <0>        0.03690
     20 H12        -0.7717   -2.6058    1.2248 HC        1 <0>        0.03690
     21 H13         0.9752   -2.3148    1.1205 HC        1 <0>        0.03690
     22 H14         0.1018   -2.9793   -0.2736 HC        1 <0>        0.03690
@<TRIPOS>BOND
     1    1    2 1
     2    1    3 1
     3    2    5 1
     4    3    8 1
     5    4    5 1
     6    4    8 1
     7    5    6 1
     8    5    7 1
     9    1    9 1
    10    1   10 1
    11    2   11 1
    12    2   12 1
    13    3   13 1
    14    3   14 1
    15    4   15 1
    16    4   16 1
    17    6   17 1
    18    6   18 1
    19    6   19 1
    20    7   20 1
    21    7   21 1
    22    7   22 1
@<TRIPOS>SUBSTRUCTURE
     1 <0>         1 GROUP 0 A     ****
