@<TRIPOS>MOLECULE
AlkEthOH_r905
   28    28     1     0     0
SMALL
USER_CHARGES

@<TRIPOS>ATOM
      1 C1         -1.2360   -1.7516   -0.9505 CT        1 <0>       -0.07105
      2 C2         -0.2464   -1.0412   -1.8843 CT        1 <0>       -0.07409
      3 C3         -1.4172   -1.1614    0.4538 CT        1 <0>       -0.07375
      4 C4         -0.5190    0.4534   -2.0958 CT        1 <0>       -0.10882
      5 C5         -0.1240   -1.0458    1.2701 CT        1 <0>       -0.06925
      6 C6          0.6350    1.3479   -1.6285 CT        1 <0>        0.13043
      7 C7          0.2093    1.4465    0.7197 CT        1 <0>        0.13026
      8 C8          0.1510    0.3728    1.8184 CT        1 <0>       -0.06809
      9 C9          1.4609    0.3575    2.6152 CT        1 <0>       -0.08920
     10 O1          1.0864    1.0217   -0.3181 OS        1 <0>       -0.41755
     11 H1         -2.2192   -1.7758   -1.4375 HC        1 <0>        0.03543
     12 H2         -0.9206   -2.7983   -0.8532 HC        1 <0>        0.03543
     13 H3          0.7805   -1.2145   -1.5445 HC        1 <0>        0.04527
     14 H4         -0.3109   -1.5387   -2.8611 HC        1 <0>        0.04527
     15 H5         -1.9473   -0.2067    0.3923 HC        1 <0>        0.03359
     16 H6         -2.1023   -1.8250    0.9985 HC        1 <0>        0.03359
     17 H7         -0.6783    0.6423   -3.1647 HC        1 <0>        0.04264
     18 H8         -1.4496    0.7509   -1.6030 HC        1 <0>        0.04264
     19 H9         -0.2031   -1.7302    2.1257 HC        1 <0>        0.04623
     20 H10         0.7398   -1.4015    0.6976 HC        1 <0>        0.04623
     21 H11         1.4885    1.2038   -2.3002 H1        1 <0>        0.04386
     22 H12         0.3588    2.4075   -1.6820 H1        1 <0>        0.04386
     23 H13        -0.7971    1.6557    0.3436 H1        1 <0>        0.03192
     24 H14         0.5931    2.3907    1.1230 H1        1 <0>        0.03192
     25 H15        -0.6543    0.6445    2.5129 HC        1 <0>        0.04295
     26 H16         2.2835    0.0913    1.9567 HC        1 <0>        0.03676
     27 H17         1.3895   -0.3722    3.4173 HC        1 <0>        0.03676
     28 H18         1.6404    1.3426    3.0376 HC        1 <0>        0.03676
@<TRIPOS>BOND
     1    1    2 1
     2    1    3 1
     3    2    4 1
     4    3    5 1
     5    4    6 1
     6    5    8 1
     7    6   10 1
     8    7    8 1
     9    7   10 1
    10    8    9 1
    11    1   11 1
    12    1   12 1
    13    2   13 1
    14    2   14 1
    15    3   15 1
    16    3   16 1
    17    4   17 1
    18    4   18 1
    19    5   19 1
    20    5   20 1
    21    6   21 1
    22    6   22 1
    23    7   23 1
    24    7   24 1
    25    8   25 1
    26    9   26 1
    27    9   27 1
    28    9   28 1
@<TRIPOS>SUBSTRUCTURE
     1 <0>         1 GROUP 0 A     ****
