@<TRIPOS>MOLECULE
AlkEthOH_r876
   33    33     1     0     0
SMALL
USER_CHARGES

@<TRIPOS>ATOM
      1 C1         -0.0575    0.3995   -2.2273 CT        1 <0>       -0.07226
      2 C2         -1.4252   -0.1707   -1.8547 CT        1 <0>       -0.07140
      3 C3          1.1319   -0.4863   -1.8623 CT        1 <0>       -0.06979
      4 C4         -2.0632    0.4442   -0.6056 CT        1 <0>       -0.07155
      5 C5          1.1548   -1.1131   -0.4675 CT        1 <0>       -0.06472
      6 C6         -0.0171    0.7648    0.9214 CT        1 <0>       -0.06330
      7 C7         -1.4034    0.1054    0.7462 CT        1 <0>       -0.05922
      8 C8          1.2115   -0.1705    0.7594 CT        1 <0>       -0.04662
      9 C9         -2.3358    0.5812    1.8720 CT        1 <0>       -0.09260
     10 C10         2.4800    0.7057    0.6969 CT        1 <0>       -0.08846
     11 C11         1.3241   -1.0601    2.0215 CT        1 <0>       -0.08846
     12 H1         -0.0307    0.5218   -3.3189 HC        1 <0>        0.03657
     13 H2          0.0745    1.4116   -1.8341 HC        1 <0>        0.03657
     14 H3         -2.1061    0.0479   -2.6887 HC        1 <0>        0.03746
     15 H4         -1.3996   -1.2632   -1.7772 HC        1 <0>        0.03746
     16 H5          1.1604   -1.3140   -2.5843 HC        1 <0>        0.03479
     17 H6          2.0568    0.0766   -2.0349 HC        1 <0>        0.03479
     18 H7         -2.1231    1.5337   -0.7277 HC        1 <0>        0.03543
     19 H8         -3.1031    0.0908   -0.5775 HC        1 <0>        0.03543
     20 H9          0.3143   -1.8096   -0.3709 HC        1 <0>        0.03743
     21 H10         2.0443   -1.7595   -0.4363 HC        1 <0>        0.03743
     22 H11         0.0705    1.6288    0.2542 HC        1 <0>        0.03956
     23 H12         0.0469    1.2099    1.9252 HC        1 <0>        0.03956
     24 H13        -1.3348   -0.9832    0.8420 HC        1 <0>        0.05037
     25 H14        -2.4382    1.6605    1.8214 HC        1 <0>        0.03211
     26 H15        -1.9131    0.2998    2.8313 HC        1 <0>        0.03211
     27 H16        -3.3095    0.1166    1.7522 HC        1 <0>        0.03211
     28 H17         2.5022    1.3576    1.5621 HC        1 <0>        0.03320
     29 H18         2.4561    1.2978   -0.2103 HC        1 <0>        0.03320
     30 H19         3.3531    0.0640    0.6959 HC        1 <0>        0.03320
     31 H20         1.3654   -0.4224    2.8944 HC        1 <0>        0.03320
     32 H21         2.2261   -1.6531    1.9501 HC        1 <0>        0.03320
     33 H22         0.4567   -1.7049    2.0715 HC        1 <0>        0.03320
@<TRIPOS>BOND
     1    1    2 1
     2    1    3 1
     3    2    4 1
     4    3    5 1
     5    4    7 1
     6    5    8 1
     7    6    7 1
     8    6    8 1
     9    7    9 1
    10    8   10 1
    11    8   11 1
    12    1   12 1
    13    1   13 1
    14    2   14 1
    15    2   15 1
    16    3   16 1
    17    3   17 1
    18    4   18 1
    19    4   19 1
    20    5   20 1
    21    5   21 1
    22    6   22 1
    23    6   23 1
    24    7   24 1
    25    9   25 1
    26    9   26 1
    27    9   27 1
    28   10   28 1
    29   10   29 1
    30   10   30 1
    31   11   31 1
    32   11   32 1
    33   11   33 1
@<TRIPOS>SUBSTRUCTURE
     1 <0>         1 GROUP 0 A     ****
