@<TRIPOS>MOLECULE
AlkEthOH_r95
   26    26     1     0     0
SMALL
USER_CHARGES

@<TRIPOS>ATOM
      1 C1          1.5372   -0.8812    0.8029 CT        1 <0>       -0.06757
      2 C2          1.4407   -1.5288   -0.5828 CT        1 <0>       -0.09843
      3 C3         -1.7396   -0.1428    0.7307 CT        1 <0>       -0.10684
      4 C4          1.4973    0.6473    0.8394 CT        1 <0>       -0.10118
      5 C5         -1.0435    1.2161    0.8267 CT        1 <0>       -0.09790
      6 C6          0.0300   -1.9741   -0.9646 CT        1 <0>        0.12841
      7 C7         -1.9499   -0.6588   -0.6913 CT        1 <0>        0.13259
      8 C8          0.3333    1.3882    0.1738 CT        1 <0>        0.12707
      9 O1         -0.7357   -0.8598   -1.4017 OS        1 <0>       -0.42330
     10 O2          0.6302    2.7940    0.2668 OH        1 <0>       -0.60187
     11 H1          0.8077   -1.3116    1.4936 HC        1 <0>        0.03517
     12 H2          2.5125   -1.1663    1.2225 HC        1 <0>        0.03517
     13 H3          1.8542   -0.8577   -1.3442 HC        1 <0>        0.05353
     14 H4          2.0694   -2.4280   -0.5688 HC        1 <0>        0.05353
     15 H5         -1.2035   -0.8788    1.3312 HC        1 <0>        0.04470
     16 H6         -2.7265   -0.0468    1.2018 HC        1 <0>        0.04470
     17 H7          1.5662    0.9678    1.8880 HC        1 <0>        0.04293
     18 H8          2.4281    1.0147    0.3839 HC        1 <0>        0.04293
     19 H9         -1.7213    1.9671    0.3968 HC        1 <0>        0.04428
     20 H10        -0.9672    1.4929    1.8869 HC        1 <0>        0.04428
     21 H11         0.0988   -2.6572   -1.8186 H1        1 <0>        0.03939
     22 H12        -0.4503   -2.5289   -0.1501 H1        1 <0>        0.03939
     23 H13        -2.5297   -1.5896   -0.6830 H1        1 <0>        0.04660
     24 H14        -2.5351    0.0745   -1.2570 H1        1 <0>        0.04660
     25 H15         0.2984    1.1734   -0.8957 H1        1 <0>        0.10652
     26 H16         0.6989    2.9851    1.2110 HO        1 <0>        0.38930
@<TRIPOS>BOND
     1    1    2 1
     2    1    4 1
     3    2    6 1
     4    3    5 1
     5    3    7 1
     6    4    8 1
     7    5    8 1
     8    6    9 1
     9    7    9 1
    10    8   10 1
    11    1   11 1
    12    1   12 1
    13    2   13 1
    14    2   14 1
    15    3   15 1
    16    3   16 1
    17    4   17 1
    18    4   18 1
    19    5   19 1
    20    5   20 1
    21    6   21 1
    22    6   22 1
    23    7   23 1
    24    7   24 1
    25    8   25 1
    26   10   26 1
@<TRIPOS>SUBSTRUCTURE
     1 <0>         1 GROUP 0 A     ****
