@<TRIPOS>MOLECULE
AlkEthOH_r1094
   17    17     1     0     0
SMALL
USER_CHARGES

@<TRIPOS>ATOM
      1 C1         -0.0443    0.6422   -0.8872 CT        1 <0>        0.09129
      2 C2         -0.5174   -0.1338   -2.1047 CT        1 <0>        0.09423
      3 C3         -2.2672    1.2376   -0.3995 CT        1 <0>        0.09545
      4 C4         -2.7471    0.4628   -1.6241 CT        1 <0>        0.10373
      5 C5         -4.1345   -0.1194   -1.4068 CT        1 <0>       -0.09101
      6 O1         -0.9415    1.7240   -0.6273 OS        1 <0>       -0.41278
      7 O2         -1.8432   -0.6195   -1.8819 OS        1 <0>       -0.41467
      8 H1          0.0002    0.0001    0.0001 H1        1 <0>        0.05675
      9 H2          0.9524    1.0584   -1.0607 H1        1 <0>        0.05675
     10 H3         -0.5193    0.4969   -3.0012 H1        1 <0>        0.05687
     11 H4          0.1346   -0.9924   -2.2897 H1        1 <0>        0.05687
     12 H5         -2.9140    2.0992   -0.2064 H1        1 <0>        0.05755
     13 H6         -2.2584    0.6092    0.4992 H1        1 <0>        0.05755
     14 H7         -2.7598    1.1150   -2.5064 H1        1 <0>        0.04874
     15 H8         -4.1363   -0.7708   -0.5314 HC        1 <0>        0.04756
     16 H9         -4.4388   -0.7015   -2.2781 HC        1 <0>        0.04756
     17 H10        -4.8583    0.6820   -1.2496 HC        1 <0>        0.04756
@<TRIPOS>BOND
     1    1    2 1
     2    1    6 1
     3    2    7 1
     4    3    4 1
     5    3    6 1
     6    4    5 1
     7    4    7 1
     8    1    8 1
     9    1    9 1
    10    2   10 1
    11    2   11 1
    12    3   12 1
    13    3   13 1
    14    4   14 1
    15    5   15 1
    16    5   16 1
    17    5   17 1
@<TRIPOS>SUBSTRUCTURE
     1 <0>         1 GROUP 0 A     ****
