@<TRIPOS>MOLECULE
AlkEthOH_r938
   34    34     1     0     0
SMALL
USER_CHARGES

@<TRIPOS>ATOM
      1 C1         -1.8886    0.6002   -1.3690 CT        1 <0>       -0.07235
      2 C2         -0.6838    0.6877   -2.3147 CT        1 <0>       -0.10938
      3 C3         -1.7839    1.4622   -0.1009 CT        1 <0>       -0.06937
      4 C4         -0.3488   -0.1943    1.2675 CT        1 <0>       -0.06280
      5 C5          0.0176   -0.6593   -2.5224 CT        1 <0>        0.13134
      6 C6          1.3704   -0.7931   -0.5553 CT        1 <0>        0.13488
      7 C7         -0.5333    1.2649    0.7857 CT        1 <0>       -0.06029
      8 C8          1.0412   -0.8310    0.9560 CT        1 <0>       -0.05885
      9 C9         -0.6280    2.2097    1.9929 CT        1 <0>       -0.09240
     10 C10         2.1585   -0.1114    1.7313 CT        1 <0>       -0.08787
     11 C11         0.9982   -2.3014    1.4258 CT        1 <0>       -0.08787
     12 O1          0.2805   -1.3341   -1.2969 OS        1 <0>       -0.41908
     13 H1         -2.7745    0.9453   -1.9188 HC        1 <0>        0.04528
     14 H2         -2.1103   -0.4384   -1.1011 HC        1 <0>        0.04528
     15 H3         -1.0223    1.0442   -3.2958 HC        1 <0>        0.04292
     16 H4          0.0336    1.4351   -1.9635 HC        1 <0>        0.04292
     17 H5         -1.8287    2.5163   -0.4061 HC        1 <0>        0.03555
     18 H6         -2.6844    1.2841    0.5017 HC        1 <0>        0.03555
     19 H7         -0.5136   -0.2463    2.3529 HC        1 <0>        0.04792
     20 H8         -1.1325   -0.8328    0.8438 HC        1 <0>        0.04792
     21 H9         -0.6394   -1.3130   -3.1066 H1        1 <0>        0.04370
     22 H10         0.9434   -0.5380   -3.0969 H1        1 <0>        0.04370
     23 H11         1.6125    0.2251   -0.8775 H1        1 <0>        0.03298
     24 H12         2.2550   -1.4040   -0.7716 H1        1 <0>        0.03298
     25 H13         0.3393    1.5943    0.2157 HC        1 <0>        0.04309
     26 H14        -1.4824    1.9312    2.6025 HC        1 <0>        0.03241
     27 H15        -0.7486    3.2306    1.6431 HC        1 <0>        0.03241
     28 H16         0.2802    2.1326    2.5832 HC        1 <0>        0.03241
     29 H17         3.1117   -0.5734    1.4965 HC        1 <0>        0.03617
     30 H18         1.9652   -0.1931    2.7958 HC        1 <0>        0.03617
     31 H19         2.1782    0.9343    1.4424 HC        1 <0>        0.03617
     32 H20         1.9549   -2.7652    1.2193 HC        1 <0>        0.03617
     33 H21         0.2127   -2.8195    0.8895 HC        1 <0>        0.03617
     34 H22         0.7975   -2.3253    2.4900 HC        1 <0>        0.03617
@<TRIPOS>BOND
     1    1    2 1
     2    1    3 1
     3    2    5 1
     4    3    7 1
     5    4    7 1
     6    4    8 1
     7    5   12 1
     8    6    8 1
     9    6   12 1
    10    7    9 1
    11    8   10 1
    12    8   11 1
    13    1   13 1
    14    1   14 1
    15    2   15 1
    16    2   16 1
    17    3   17 1
    18    3   18 1
    19    4   19 1
    20    4   20 1
    21    5   21 1
    22    5   22 1
    23    6   23 1
    24    6   24 1
    25    7   25 1
    26    9   26 1
    27    9   27 1
    28    9   28 1
    29   10   29 1
    30   10   30 1
    31   10   31 1
    32   11   32 1
    33   11   33 1
    34   11   34 1
@<TRIPOS>SUBSTRUCTURE
     1 <0>         1 GROUP 0 A     ****
