@<TRIPOS>MOLECULE
AlkEthOH_r479
   32    32     1     0     0
SMALL
USER_CHARGES

@<TRIPOS>ATOM
      1 C1          1.8982    0.7924   -1.0239 CT        1 <0>       -0.10989
      2 C2          0.9896    1.5646   -0.0597 CT        1 <0>       -0.06736
      3 C3         -1.0320   -0.0592   -0.5173 CT        1 <0>       -0.05200
      4 C4          2.4534   -0.5137   -0.4542 CT        1 <0>        0.13258
      5 C5          0.6819   -1.3986    0.8789 CT        1 <0>        0.10223
      6 C6         -0.5428    1.3967   -0.2537 CT        1 <0>       -0.04004
      7 C7         -0.7923   -1.1712    0.5302 CT        1 <0>        0.13907
      8 C8         -1.2485    2.0079    0.9744 CT        1 <0>       -0.08820
      9 C9         -0.9719    2.2385   -1.4846 CT        1 <0>       -0.08820
     10 C10        -1.3976   -2.4779   -0.0160 CT        1 <0>       -0.12435
     11 O1          1.4631   -1.5221   -0.3029 OS        1 <0>       -0.41497
     12 O2         -1.5011   -0.8573    1.7287 OH        1 <0>       -0.59614
     13 H1          1.3898    0.6001   -1.9738 HC        1 <0>        0.04972
     14 H2          2.7592    1.4324   -1.2555 HC        1 <0>        0.04972
     15 H3          1.2779    1.3538    0.9757 HC        1 <0>        0.03895
     16 H4          1.2228    2.6325   -0.1825 HC        1 <0>        0.03895
     17 H5         -2.1204    0.0013   -0.6715 HC        1 <0>        0.05246
     18 H6         -0.6270   -0.3959   -1.4811 HC        1 <0>        0.05246
     19 H7          3.1860   -0.9081   -1.1673 H1        1 <0>        0.04456
     20 H8          2.9924   -0.3520    0.4870 H1        1 <0>        0.04456
     21 H9          1.0586   -0.6361    1.5681 H1        1 <0>        0.04586
     22 H10         0.7870   -2.3386    1.4355 H1        1 <0>        0.04586
     23 H11        -2.3203    1.8998    0.8566 HC        1 <0>        0.03567
     24 H12        -0.9895    3.0577    1.0450 HC        1 <0>        0.03567
     25 H13        -0.9212    1.4865    1.8663 HC        1 <0>        0.03567
     26 H14        -2.0375    2.1256   -1.6248 HC        1 <0>        0.03567
     27 H15        -0.4388    1.8767   -2.3523 HC        1 <0>        0.03567
     28 H16        -0.7253    3.2739   -1.2970 HC        1 <0>        0.03567
     29 H17        -1.2399   -3.2723    0.7052 HC        1 <0>        0.04509
     30 H18        -0.9125   -2.7310   -0.9522 HC        1 <0>        0.04509
     31 H19        -2.4604   -2.3369   -0.1797 HC        1 <0>        0.04509
     32 H20        -1.3209   -1.5785    2.3505 HO        1 <0>        0.39488
@<TRIPOS>BOND
     1    1    2 1
     2    1    4 1
     3    2    6 1
     4    3    6 1
     5    3    7 1
     6    4   11 1
     7    5    7 1
     8    5   11 1
     9    6    8 1
    10    6    9 1
    11    7   10 1
    12    7   12 1
    13    1   13 1
    14    1   14 1
    15    2   15 1
    16    2   16 1
    17    3   17 1
    18    3   18 1
    19    4   19 1
    20    4   20 1
    21    5   21 1
    22    5   22 1
    23    8   23 1
    24    8   24 1
    25    8   25 1
    26    9   26 1
    27    9   27 1
    28    9   28 1
    29   10   29 1
    30   10   30 1
    31   10   31 1
    32   12   32 1
@<TRIPOS>SUBSTRUCTURE
     1 <0>         1 GROUP 0 A     ****
