@<TRIPOS>MOLECULE
AlkEthOH_r270
   28    28     1     0     0
SMALL
USER_CHARGES

@<TRIPOS>ATOM
      1 C1         -1.5142    1.9246   -1.2963 CT        1 <0>       -0.08670
      2 C2         -2.1012    0.5197   -1.5380 CT        1 <0>       -0.08422
      3 C3          0.7959   -0.5204    1.3318 CT        1 <0>       -0.18314
      4 C4         -0.0313    1.9542   -0.9287 CT        1 <0>        0.13826
      5 C5         -1.7030   -0.5433   -0.5137 CT        1 <0>        0.14596
      6 C6          1.2440    0.8451    0.7865 CT        1 <0>        0.35002
      7 C7          0.3616   -1.5484    0.2597 CT        1 <0>        0.35774
      8 C8          1.6021   -2.1652   -0.3955 CT        1 <0>       -0.11941
      9 O1          0.0796    1.5893    0.4425 OS        1 <0>       -0.41030
     10 O2         -0.3756   -0.9637   -0.8138 OS        1 <0>       -0.42509
     11 O3          1.9733    1.5470    1.7936 OH        1 <0>       -0.59959
     12 O4         -0.3311   -2.6388    0.8719 OH        1 <0>       -0.61720
     13 H1         -1.6720    2.5166   -2.2056 HC        1 <0>        0.05132
     14 H2         -2.0919    2.4020   -0.4947 HC        1 <0>        0.05132
     15 H3         -3.1938    0.6103   -1.5554 HC        1 <0>        0.04976
     16 H4         -1.7891    0.1886   -2.5367 HC        1 <0>        0.04976
     17 H5          1.5832   -0.9595    1.9595 HC        1 <0>        0.06698
     18 H6         -0.0424   -0.3562    2.0236 HC        1 <0>        0.06698
     19 H7          0.5428    1.2991   -1.5929 H1        1 <0>        0.04247
     20 H8          0.3592    2.9719   -1.0308 H1        1 <0>        0.04247
     21 H9         -1.8050   -0.1597    0.5060 H1        1 <0>        0.04980
     22 H10        -2.3585   -1.4147   -0.6175 H1        1 <0>        0.04980
     23 H11         1.9231    0.7218   -0.0797 H2        1 <0>        0.04222
     24 H12         1.2939   -2.8863   -1.1475 HC        1 <0>        0.05235
     25 H13         2.2008   -2.6647    0.3611 HC        1 <0>        0.05235
     26 H14         2.1912   -1.3821   -0.8647 HC        1 <0>        0.05235
     27 H15         2.7385    0.9943    2.0134 HO        1 <0>        0.40340
     28 H16         0.2913   -3.0381    1.4969 HO        1 <0>        0.41034
@<TRIPOS>BOND
     1    1    2 1
     2    1    4 1
     3    2    5 1
     4    3    6 1
     5    3    7 1
     6    4    9 1
     7    5   10 1
     8    6    9 1
     9    6   11 1
    10    7    8 1
    11    7   10 1
    12    7   12 1
    13    1   13 1
    14    1   14 1
    15    2   15 1
    16    2   16 1
    17    3   17 1
    18    3   18 1
    19    4   19 1
    20    4   20 1
    21    5   21 1
    22    5   22 1
    23    6   23 1
    24    8   24 1
    25    8   25 1
    26    8   26 1
    27   11   27 1
    28   12   28 1
@<TRIPOS>SUBSTRUCTURE
     1 <0>         1 GROUP 0 A     ****
