@<TRIPOS>MOLECULE
AlkEthOH_r1085
   28    28     1     0     0
SMALL
USER_CHARGES

@<TRIPOS>ATOM
      1 C1          0.7804    2.1103    1.3712 CT        1 <0>       -0.10830
      2 C2          1.3535    0.8018    1.9131 CT        1 <0>        0.12615
      3 C3          0.3045    1.9730   -0.0742 CT        1 <0>        0.15028
      4 C4          0.6999   -1.4302    1.3591 CT        1 <0>        0.11464
      5 C5          0.6752   -1.3636   -0.1729 CT        1 <0>        0.11984
      6 C6         -0.9681    0.1730   -1.1061 CT        1 <0>        0.53765
      7 C7          1.1165   -2.6997   -0.7611 CT        1 <0>       -0.10101
      8 C8         -2.4635    0.0954   -1.4478 CT        1 <0>       -0.09134
      9 O1          0.3290   -0.1872    1.9519 OS        1 <0>       -0.39479
     10 O2         -0.8944    1.2053   -0.1106 OS        1 <0>       -0.42149
     11 O3         -0.6682   -1.1413   -0.6040 OS        1 <0>       -0.46486
     12 O4         -0.2648    0.4631   -2.3185 OH        1 <0>       -0.64858
     13 H1         -0.0652    2.4164    1.9986 HC        1 <0>        0.06198
     14 H2          1.5515    2.8862    1.4280 HC        1 <0>        0.06198
     15 H3          2.2171    0.4872    1.3155 H1        1 <0>        0.03142
     16 H4          1.7020    0.9543    2.9399 H1        1 <0>        0.03142
     17 H5          0.0610    2.9648   -0.4700 H1        1 <0>        0.04411
     18 H6          1.1065    1.5621   -0.6923 H1        1 <0>        0.04411
     19 H7         -0.0388   -2.1621    1.7049 H1        1 <0>        0.05437
     20 H8          1.6795   -1.7440    1.7387 H1        1 <0>        0.05437
     21 H9          1.3476   -0.5892   -0.5452 H1        1 <0>        0.05270
     22 H10         0.4624   -3.4960   -0.4070 HC        1 <0>        0.04331
     23 H11         2.1395   -2.9198   -0.4571 HC        1 <0>        0.04331
     24 H12         1.0704   -2.6603   -1.8491 HC        1 <0>        0.04331
     25 H13        -2.6230   -0.6687   -2.2035 HC        1 <0>        0.06185
     26 H14        -2.7981    1.0564   -1.8282 HC        1 <0>        0.06185
     27 H15        -3.0265   -0.1564   -0.5535 HC        1 <0>        0.06185
     28 H16        -0.4591   -0.2648   -2.9277 HO        1 <0>        0.42987
@<TRIPOS>BOND
     1    1    2 1
     2    1    3 1
     3    2    9 1
     4    3   10 1
     5    4    5 1
     6    4    9 1
     7    5    7 1
     8    5   11 1
     9    6    8 1
    10    6   10 1
    11    6   11 1
    12    6   12 1
    13    1   13 1
    14    1   14 1
    15    2   15 1
    16    2   16 1
    17    3   17 1
    18    3   18 1
    19    4   19 1
    20    4   20 1
    21    5   21 1
    22    7   22 1
    23    7   23 1
    24    7   24 1
    25    8   25 1
    26    8   26 1
    27    8   27 1
    28   12   28 1
@<TRIPOS>SUBSTRUCTURE
     1 <0>         1 GROUP 0 A     ****
