@<TRIPOS>MOLECULE
AlkEthOH_r791
   23    23     1     0     0
SMALL
USER_CHARGES

@<TRIPOS>ATOM
      1 C1          0.6320   -0.7893   -1.2422 CT        1 <0>       -0.09944
      2 C2         -0.3051    1.0470    0.1945 CT        1 <0>       -0.13560
      3 C3          0.9777   -1.5257    0.0486 CT        1 <0>        0.13028
      4 C4          0.0915    0.2028    1.4126 CT        1 <0>        0.14110
      5 C5         -0.5533    0.1640   -1.0369 CT        1 <0>        0.14951
      6 C6          0.4539    1.0894    2.5966 CT        1 <0>       -0.09127
      7 C7         -0.7959    1.0188   -2.2805 CT        1 <0>       -0.12076
      8 O1          1.2343   -0.6013    1.1045 OS        1 <0>       -0.41753
      9 O2         -1.7351   -0.6057   -0.7973 OH        1 <0>       -0.59962
     10 H1          1.5084   -0.2119   -1.5623 HC        1 <0>        0.05961
     11 H2          0.4074   -1.5258   -2.0225 HC        1 <0>        0.05961
     12 H3         -1.2020    1.6303    0.4362 HC        1 <0>        0.05375
     13 H4          0.5037    1.7537   -0.0333 HC        1 <0>        0.05375
     14 H5          0.1782   -2.2126    0.3495 H1        1 <0>        0.05466
     15 H6          1.8838   -2.1221   -0.0979 H1        1 <0>        0.05466
     16 H7         -0.7337   -0.4559    1.7109 H1        1 <0>        0.04452
     17 H8          1.2736    1.7558    2.3271 HC        1 <0>        0.04449
     18 H9          0.7621    0.4749    3.4428 HC        1 <0>        0.04449
     19 H10        -0.4073    1.6897    2.8910 HC        1 <0>        0.04449
     20 H11        -1.6395    1.6851   -2.1102 HC        1 <0>        0.04368
     21 H12        -1.0137    0.3765   -3.1317 HC        1 <0>        0.04368
     22 H13         0.0903    1.6123   -2.4976 HC        1 <0>        0.04368
     23 H14        -2.4534    0.0318   -0.6741 HO        1 <0>        0.39826
@<TRIPOS>BOND
     1    1    3 1
     2    1    5 1
     3    2    4 1
     4    2    5 1
     5    3    8 1
     6    4    6 1
     7    4    8 1
     8    5    7 1
     9    5    9 1
    10    1   10 1
    11    1   11 1
    12    2   12 1
    13    2   13 1
    14    3   14 1
    15    3   15 1
    16    4   16 1
    17    6   17 1
    18    6   18 1
    19    6   19 1
    20    7   20 1
    21    7   21 1
    22    7   22 1
    23    9   23 1
@<TRIPOS>SUBSTRUCTURE
     1 <0>         1 GROUP 0 A     ****
