@<TRIPOS>MOLECULE
AlkEthOH_r418
   29    29     1     0     0
SMALL
USER_CHARGES

@<TRIPOS>ATOM
      1 C1          1.9205    0.6776    0.4065 CT        1 <0>       -0.07119
      2 C2          2.3488   -0.7073   -0.0918 CT        1 <0>       -0.10191
      3 C3          0.8369    1.3462   -0.4514 CT        1 <0>       -0.07114
      4 C4         -1.0771   -0.0352    0.6629 CT        1 <0>       -0.13049
      5 C5          1.2607   -1.7720   -0.0227 CT        1 <0>        0.13541
      6 C6         -1.0583   -1.2077   -0.3301 CT        1 <0>        0.34040
      7 C7         -0.6022    1.3432    0.1334 CT        1 <0>       -0.04066
      8 C8         -1.5653    1.8445   -0.9636 CT        1 <0>       -0.09099
      9 C9         -0.6768    2.3477    1.3071 CT        1 <0>       -0.09099
     10 O1          0.2106   -1.4542   -0.9281 OS        1 <0>       -0.40670
     11 O2         -1.5979   -2.3829    0.2777 OH        1 <0>       -0.62888
     12 H1          1.6337    0.6240    1.4613 HC        1 <0>        0.03731
     13 H2          2.8131    1.3161    0.3715 HC        1 <0>        0.03731
     14 H3          2.6992   -0.6140   -1.1273 HC        1 <0>        0.04758
     15 H4          3.2043   -1.0421    0.5069 HC        1 <0>        0.04758
     16 H5          1.1352    2.3941   -0.5993 HC        1 <0>        0.04876
     17 H6          0.8417    0.9159   -1.4606 HC        1 <0>        0.04876
     18 H7         -2.1045    0.0606    1.0438 HC        1 <0>        0.05068
     19 H8         -0.4930   -0.3043    1.5517 HC        1 <0>        0.05068
     20 H9          1.6848   -2.7268   -0.3526 H1        1 <0>        0.05011
     21 H10         0.9128   -1.9192    1.0052 H1        1 <0>        0.05011
     22 H11        -1.7399   -0.9578   -1.1701 H2        1 <0>        0.06862
     23 H12        -2.5753    1.8487   -0.5716 HC        1 <0>        0.03548
     24 H13        -1.5035    1.1808   -1.8176 HC        1 <0>        0.03548
     25 H14        -1.2778    2.8479   -1.2540 HC        1 <0>        0.03548
     26 H15        -1.6813    2.3410    1.7101 HC        1 <0>        0.03548
     27 H16        -0.4310    3.3353    0.9385 HC        1 <0>        0.03548
     28 H17         0.0313    2.0486    2.0692 HC        1 <0>        0.03548
     29 H18        -2.5074   -2.1658    0.5314 HO        1 <0>        0.40676
@<TRIPOS>BOND
     1    1    2 1
     2    1    3 1
     3    2    5 1
     4    3    7 1
     5    4    6 1
     6    4    7 1
     7    5   10 1
     8    6   10 1
     9    6   11 1
    10    7    8 1
    11    7    9 1
    12    1   12 1
    13    1   13 1
    14    2   14 1
    15    2   15 1
    16    3   16 1
    17    3   17 1
    18    4   18 1
    19    4   19 1
    20    5   20 1
    21    5   21 1
    22    6   22 1
    23    8   23 1
    24    8   24 1
    25    8   25 1
    26    9   26 1
    27    9   27 1
    28    9   28 1
    29   11   29 1
@<TRIPOS>SUBSTRUCTURE
     1 <0>         1 GROUP 0 A     ****
