@<TRIPOS>MOLECULE
AlkEthOH_r720
   17    17     1     0     0
SMALL
USER_CHARGES

@<TRIPOS>ATOM
      1 C1         -0.7101    0.0961   -0.8285 CT        1 <0>        0.10692
      2 C2         -1.2882   -1.2361   -1.2196 CT        1 <0>        0.10692
      3 C3          0.4461   -0.7367   -2.5921 CT        1 <0>        0.34548
      4 C4          1.9426   -0.9110   -2.3660 CT        1 <0>       -0.10769
      5 C5          0.1116   -0.6964   -4.0779 CT        1 <0>       -0.10769
      6 O1          0.0152    0.4952   -1.9911 OS        1 <0>       -0.44268
      7 O2         -0.2420   -1.8396   -1.9801 OS        1 <0>       -0.44268
      8 H1         -1.4684    0.8394   -0.5711 H1        1 <0>        0.05782
      9 H2         -0.0005    0.0002    0.0004 H1        1 <0>        0.05782
     10 H3         -1.5562   -1.8616   -0.3646 H1        1 <0>        0.05782
     11 H4         -2.1608   -1.1211   -1.8718 H1        1 <0>        0.05782
     12 H5          2.1578   -0.9371   -1.2978 HC        1 <0>        0.05169
     13 H6          2.4869   -0.0808   -2.8162 HC        1 <0>        0.05169
     14 H7          2.2819   -1.8431   -2.8181 HC        1 <0>        0.05169
     15 H8         -0.9625   -0.5713   -4.2151 HC        1 <0>        0.05169
     16 H9          0.4233   -1.6253   -4.5556 HC        1 <0>        0.05169
     17 H10         0.6285    0.1370   -4.5540 HC        1 <0>        0.05169
@<TRIPOS>BOND
     1    1    2 1
     2    1    6 1
     3    2    7 1
     4    3    4 1
     5    3    5 1
     6    3    6 1
     7    3    7 1
     8    1    8 1
     9    1    9 1
    10    2   10 1
    11    2   11 1
    12    4   12 1
    13    4   13 1
    14    4   14 1
    15    5   15 1
    16    5   16 1
    17    5   17 1
@<TRIPOS>SUBSTRUCTURE
     1 <0>         1 GROUP 0 A     ****
