@<TRIPOS>MOLECULE
AlkEthOH_r207
   22    22     1     0     0
SMALL
USER_CHARGES

@<TRIPOS>ATOM
      1 C1          1.0373   -0.6057    1.9896 CT        1 <0>        0.09308
      2 C2          1.1294    0.7762    1.3598 CT        1 <0>        0.10045
      3 C3         -0.0853   -1.6609    0.1519 CT        1 <0>        0.09849
      4 C4          0.0498   -0.5783   -0.9155 CT        1 <0>        0.09990
      5 C5         -0.4573    0.8163   -0.4705 CT        1 <0>        0.34603
      6 C6         -1.9819    0.9429   -0.5779 CT        1 <0>       -0.10397
      7 O1          1.0423   -1.6517    1.0240 OS        1 <0>       -0.41347
      8 O2         -0.1550    1.1573    0.8848 OS        1 <0>       -0.45545
      9 O3         -0.6478   -1.0058   -2.0858 OH        1 <0>       -0.58697
     10 O4          0.0684    1.8098   -1.3604 OH        1 <0>       -0.61705
     11 H1          1.9144   -0.7680    2.6243 H1        1 <0>        0.05997
     12 H2          0.1444   -0.7032    2.6178 H1        1 <0>        0.05997
     13 H3          1.3972    1.4985    2.1378 H1        1 <0>        0.06390
     14 H4          1.8855    0.8363    0.5698 H1        1 <0>        0.06390
     15 H5         -1.0192   -1.5841    0.7204 H1        1 <0>        0.06075
     16 H6         -0.0987   -2.6466   -0.3273 H1        1 <0>        0.06075
     17 H7          1.1062   -0.5040   -1.2027 H1        1 <0>        0.07044
     18 H8         -2.2855    1.9347   -0.2557 HC        1 <0>        0.05853
     19 H9         -2.4517    0.1961    0.0554 HC        1 <0>        0.05853
     20 H10        -2.2854    0.7875   -1.6091 HC        1 <0>        0.05853
     21 H11        -0.2296   -1.8337   -2.3664 HO        1 <0>        0.40725
     22 H12        -0.2730    2.6578   -1.0447 HO        1 <0>        0.41644
@<TRIPOS>BOND
     1    1    2 1
     2    1    7 1
     3    2    8 1
     4    3    4 1
     5    3    7 1
     6    4    5 1
     7    4    9 1
     8    5    6 1
     9    5    8 1
    10    5   10 1
    11    1   11 1
    12    1   12 1
    13    2   13 1
    14    2   14 1
    15    3   15 1
    16    3   16 1
    17    4   17 1
    18    6   18 1
    19    6   19 1
    20    6   20 1
    21    9   21 1
    22   10   22 1
@<TRIPOS>SUBSTRUCTURE
     1 <0>         1 GROUP 0 A     ****
