@<TRIPOS>MOLECULE
AlkEthOH_r612
   26    26     1     0     0
SMALL
USER_CHARGES

@<TRIPOS>ATOM
      1 C1         -1.2654    1.0656   -0.2590 CT        1 <0>       -0.14117
      2 C2         -1.8606   -0.0981   -1.0445 CT        1 <0>        0.13019
      3 C3          0.0906   -1.4151   -0.8052 CT        1 <0>        0.13048
      4 C4          0.8659   -0.3307   -0.0165 CT        1 <0>       -0.06628
      5 C5         -0.1708    0.5889    0.7173 CT        1 <0>        0.16135
      6 C6          1.8056   -1.0478    0.9757 CT        1 <0>       -0.08548
      7 C7          1.7435    0.4648   -1.0090 CT        1 <0>       -0.08548
      8 C8          0.4526    1.7994    1.4242 CT        1 <0>       -0.12052
      9 O1         -0.8416   -0.8325   -1.7164 OS        1 <0>       -0.41314
     10 O2         -0.8199   -0.1945    1.7335 OH        1 <0>       -0.60179
     11 H1         -0.8438    1.7925   -0.9631 HC        1 <0>        0.05402
     12 H2         -2.0746    1.5672    0.2859 HC        1 <0>        0.05402
     13 H3         -2.4314   -0.7727   -0.3956 H1        1 <0>        0.05015
     14 H4         -2.5521    0.2835   -1.8028 H1        1 <0>        0.05015
     15 H5          0.7812   -2.0275   -1.3966 H1        1 <0>        0.05621
     16 H6         -0.4441   -2.1000   -0.1351 H1        1 <0>        0.05621
     17 H7          2.3583   -0.3050    1.5385 HC        1 <0>        0.04028
     18 H8          2.4920   -1.6762    0.4208 HC        1 <0>        0.04028
     19 H9          1.2118   -1.6544    1.6490 HC        1 <0>        0.04028
     20 H10         2.2884    1.2249   -0.4637 HC        1 <0>        0.04028
     21 H11         1.1037    0.9267   -1.7502 HC        1 <0>        0.04028
     22 H12         2.4355   -0.2160   -1.4885 HC        1 <0>        0.04028
     23 H13         1.2229    1.4600    2.1107 HC        1 <0>        0.04398
     24 H14        -0.3168    2.3311    1.9767 HC        1 <0>        0.04398
     25 H15         0.8923    2.4628    0.6849 HC        1 <0>        0.04398
     26 H16        -1.4556    0.3973    2.1570 HO        1 <0>        0.39746
@<TRIPOS>BOND
     1    1    2 1
     2    1    5 1
     3    2    9 1
     4    3    4 1
     5    3    9 1
     6    4    5 1
     7    4    6 1
     8    4    7 1
     9    5    8 1
    10    5   10 1
    11    1   11 1
    12    1   12 1
    13    2   13 1
    14    2   14 1
    15    3   15 1
    16    3   16 1
    17    6   17 1
    18    6   18 1
    19    6   19 1
    20    7   20 1
    21    7   21 1
    22    7   22 1
    23    8   23 1
    24    8   24 1
    25    8   25 1
    26   10   26 1
@<TRIPOS>SUBSTRUCTURE
     1 <0>         1 GROUP 0 A     ****
