@<TRIPOS>MOLECULE
AlkEthOH_r393
   32    32     1     0     0
SMALL
USER_CHARGES

@<TRIPOS>ATOM
      1 C1         -0.0960   -0.6303   -2.6527 CT        1 <0>       -0.07140
      2 C2         -0.1965    0.6808   -1.8694 CT        1 <0>       -0.07179
      3 C3         -0.0554   -1.9476   -1.8568 CT        1 <0>       -0.09099
      4 C4          0.9394    0.9165   -0.8665 CT        1 <0>       -0.07296
      5 C5         -0.5981    0.6515    1.2378 CT        1 <0>       -0.12687
      6 C6         -0.7422   -1.9314   -0.4921 CT        1 <0>        0.14464
      7 C7         -0.2558   -0.8048    1.5914 CT        1 <0>        0.34502
      8 C8          0.4938    1.4943    0.5087 CT        1 <0>       -0.03678
      9 C9         -0.0697    2.9178    0.3005 CT        1 <0>       -0.09131
     10 C10         1.7437    1.6108    1.4054 CT        1 <0>       -0.09131
     11 O1          0.2264   -1.5496    0.4817 OS        1 <0>       -0.41818
     12 O2         -1.3895   -1.4082    2.2120 OH        1 <0>       -0.63092
     13 H1         -0.9646   -0.6722   -3.3234 HC        1 <0>        0.03499
     14 H2          0.7813   -0.5944   -3.3108 HC        1 <0>        0.03499
     15 H3         -0.1904    1.5071   -2.5926 HC        1 <0>        0.03504
     16 H4         -1.1822    0.7299   -1.4014 HC        1 <0>        0.03504
     17 H5         -0.5234   -2.7194   -2.4804 HC        1 <0>        0.04975
     18 H6          0.9941   -2.2434   -1.7324 HC        1 <0>        0.04975
     19 H7          1.5310    0.0077   -0.7191 HC        1 <0>        0.05145
     20 H8          1.6484    1.6187   -1.3285 HC        1 <0>        0.05145
     21 H9         -1.5308    0.6686    0.6621 HC        1 <0>        0.04933
     22 H10        -0.8684    1.1581    2.1762 HC        1 <0>        0.04933
     23 H11        -1.6317   -1.2948   -0.4912 H1        1 <0>        0.04442
     24 H12        -1.0626   -2.9474   -0.2364 H1        1 <0>        0.04442
     25 H13         0.5465   -0.7955    2.3369 H2        1 <0>        0.06297
     26 H14        -0.3787    3.3170    1.2585 HC        1 <0>        0.03511
     27 H15        -0.9184    2.8651   -0.3699 HC        1 <0>        0.03511
     28 H16         0.7037    3.5424   -0.1291 HC        1 <0>        0.03511
     29 H17         1.4518    2.0121    2.3687 HC        1 <0>        0.03511
     30 H18         2.4585    2.2731    0.9315 HC        1 <0>        0.03511
     31 H19         2.1805    0.6272    1.5328 HC        1 <0>        0.03511
     32 H20        -1.5760   -0.8884    3.0088 HO        1 <0>        0.40926
@<TRIPOS>BOND
     1    1    2 1
     2    1    3 1
     3    2    4 1
     4    3    6 1
     5    4    8 1
     6    5    7 1
     7    5    8 1
     8    6   11 1
     9    7   11 1
    10    7   12 1
    11    8    9 1
    12    8   10 1
    13    1   13 1
    14    1   14 1
    15    2   15 1
    16    2   16 1
    17    3   17 1
    18    3   18 1
    19    4   19 1
    20    4   20 1
    21    5   21 1
    22    5   22 1
    23    6   23 1
    24    6   24 1
    25    7   25 1
    26    9   26 1
    27    9   27 1
    28    9   28 1
    29   10   29 1
    30   10   30 1
    31   10   31 1
    32   12   32 1
@<TRIPOS>SUBSTRUCTURE
     1 <0>         1 GROUP 0 A     ****
