@<TRIPOS>MOLECULE
AlkEthOH_r298
   25    25     1     0     0
SMALL
USER_CHARGES

@<TRIPOS>ATOM
      1 C1          0.8904   -0.5145   -0.3745 CT        1 <0>       -0.10291
      2 C2          0.9375   -1.9731    0.0181 CT        1 <0>       -0.10288
      3 C3          0.9633   -0.5755   -1.8988 CT        1 <0>        0.14534
      4 C4          1.8642   -2.5740   -1.0368 CT        1 <0>        0.14534
      5 C5         -0.4239   -0.7068   -2.5333 CT        1 <0>       -0.09612
      6 C6          1.6971    0.6278   -2.4833 CT        1 <0>       -0.09612
      7 C7          3.3345   -2.4987   -0.6166 CT        1 <0>       -0.09612
      8 C8          1.4868   -4.0135   -1.3736 CT        1 <0>       -0.09612
      9 O1          1.7062   -1.7681   -2.2214 OS        1 <0>       -0.42165
     10 H1          0.0001    0.0001    0.0000 HC        1 <0>        0.05419
     11 H2          1.7657   -0.0006    0.0413 HC        1 <0>        0.05419
     12 H3          1.2850   -2.1278    1.0442 HC        1 <0>        0.05419
     13 H4         -0.0704   -2.3995   -0.0547 HC        1 <0>        0.05419
     14 H5         -0.3281   -0.7469   -3.6158 HC        1 <0>        0.04204
     15 H6         -1.0341    0.1501   -2.2578 HC        1 <0>        0.04204
     16 H7         -0.9022   -1.6176   -2.1805 HC        1 <0>        0.04204
     17 H8          1.7296    0.5503   -3.5693 HC        1 <0>        0.04204
     18 H9          2.7157    0.6632   -2.0989 HC        1 <0>        0.04204
     19 H10         1.1807    1.5464   -2.2076 HC        1 <0>        0.04204
     20 H11         3.9590   -2.9355   -1.3923 HC        1 <0>        0.04204
     21 H12         3.4778   -3.0469    0.3116 HC        1 <0>        0.04204
     22 H13         3.6192   -1.4596   -0.4683 HC        1 <0>        0.04204
     23 H14         2.1673   -4.4084   -2.1271 HC        1 <0>        0.04204
     24 H15         0.4691   -4.0491   -1.7603 HC        1 <0>        0.04204
     25 H16         1.5492   -4.6320   -0.4791 HC        1 <0>        0.04204
@<TRIPOS>BOND
     1    1    2 1
     2    1    3 1
     3    2    4 1
     4    3    5 1
     5    3    6 1
     6    3    9 1
     7    4    7 1
     8    4    8 1
     9    4    9 1
    10    1   10 1
    11    1   11 1
    12    2   12 1
    13    2   13 1
    14    5   14 1
    15    5   15 1
    16    5   16 1
    17    6   17 1
    18    6   18 1
    19    6   19 1
    20    7   20 1
    21    7   21 1
    22    7   22 1
    23    8   23 1
    24    8   24 1
    25    8   25 1
@<TRIPOS>SUBSTRUCTURE
     1 <0>         1 GROUP 0 A     ****
