@<TRIPOS>MOLECULE
AlkEthOH_r806
   27    27     1     0     0
SMALL
USER_CHARGES

@<TRIPOS>ATOM
      1 C1          0.0994   -0.4949    1.2231 CT        1 <0>       -0.09255
      2 C2          1.5664    0.8713   -1.6437 CT        1 <0>        0.10945
      3 C3          1.8434   -0.5595   -1.1988 CT        1 <0>        0.09611
      4 C4         -0.5023    1.3096   -0.5301 CT        1 <0>        0.10137
      5 C5          0.2516   -1.6656    0.2272 CT        1 <0>        0.15404
      6 C6         -0.8232    0.6839    0.8345 CT        1 <0>        0.14136
      7 C7         -1.0204   -2.4991    0.1049 CT        1 <0>       -0.08905
      8 C8         -0.7321    1.7592    1.9300 CT        1 <0>       -0.12484
      9 O1          0.8841    1.6230   -0.6407 OS        1 <0>       -0.41700
     10 O2          0.6149   -1.2723   -1.0961 OS        1 <0>       -0.42613
     11 O3         -2.1819    0.2445    0.7898 OH        1 <0>       -0.59775
     12 H1         -0.2543   -0.9195    2.1731 HC        1 <0>        0.05796
     13 H2          1.0983   -0.0915    1.4324 HC        1 <0>        0.05796
     14 H3          2.5205    1.3770   -1.8253 H1        1 <0>        0.05547
     15 H4          0.9942    0.8991   -2.5784 H1        1 <0>        0.05547
     16 H5          2.4418   -1.0605   -1.9670 H1        1 <0>        0.04890
     17 H6          2.4154   -0.5870   -0.2656 H1        1 <0>        0.04890
     18 H7         -0.8618    0.6797   -1.3534 H1        1 <0>        0.05610
     19 H8         -1.0562    2.2501   -0.6420 H1        1 <0>        0.05610
     20 H9          1.0343   -2.3326    0.6070 H1        1 <0>        0.02580
     21 H10        -1.8344   -1.8804   -0.2708 HC        1 <0>        0.04975
     22 H11        -1.2978   -2.8975    1.0801 HC        1 <0>        0.04975
     23 H12        -0.8563   -3.3271   -0.5838 HC        1 <0>        0.04975
     24 H13        -1.3759    2.5928    1.6686 HC        1 <0>        0.04543
     25 H14         0.2943    2.1023    2.0110 HC        1 <0>        0.04543
     26 H15        -1.0509    1.3347    2.8765 HC        1 <0>        0.04543
     27 H16        -2.7109    1.0178    0.5433 HO        1 <0>        0.39679
@<TRIPOS>BOND
     1    1    5 1
     2    1    6 1
     3    2    3 1
     4    2    9 1
     5    3   10 1
     6    4    6 1
     7    4    9 1
     8    5    7 1
     9    5   10 1
    10    6    8 1
    11    6   11 1
    12    1   12 1
    13    1   13 1
    14    2   14 1
    15    2   15 1
    16    3   16 1
    17    3   17 1
    18    4   18 1
    19    4   19 1
    20    5   20 1
    21    7   21 1
    22    7   22 1
    23    7   23 1
    24    8   24 1
    25    8   25 1
    26    8   26 1
    27   11   27 1
@<TRIPOS>SUBSTRUCTURE
     1 <0>         1 GROUP 0 A     ****
