@<TRIPOS>MOLECULE
AlkEthOH_r626
   27    27     1     0     0
SMALL
USER_CHARGES

@<TRIPOS>ATOM
      1 C1         -1.5117   -0.0681   -1.7092 CT        1 <0>       -0.07015
      2 C2         -1.5164   -1.5468   -1.3207 CT        1 <0>       -0.11309
      3 C3         -1.3477    0.9234   -0.5462 CT        1 <0>       -0.10380
      4 C4         -0.1359   -2.2026   -1.2610 CT        1 <0>        0.12950
      5 C5          0.5591   -1.1649    0.7705 CT        1 <0>        0.10084
      6 C6          0.1015    1.2151   -0.1291 CT        1 <0>        0.15985
      7 C7          0.6770    0.3438    1.0184 CT        1 <0>        0.14573
      8 C8          0.0936    0.6850    2.3946 CT        1 <0>       -0.12158
      9 O1          0.8505   -1.4263   -0.5987 OS        1 <0>       -0.40842
     10 O2          0.1490    2.5918    0.2784 OH        1 <0>       -0.59869
     11 O3          2.0811    0.6496    1.1030 OH        1 <0>       -0.58387
     12 H1         -0.7748    0.1265   -2.4971 HC        1 <0>        0.04540
     13 H2         -2.4929    0.1400   -2.1574 HC        1 <0>        0.04540
     14 H3         -2.0436   -1.6719   -0.3683 HC        1 <0>        0.04439
     15 H4         -2.1090   -2.1035   -2.0581 HC        1 <0>        0.04439
     16 H5         -1.7992    1.8686   -0.8797 HC        1 <0>        0.04828
     17 H6         -1.9513    0.6108    0.3132 HC        1 <0>        0.04828
     18 H7         -0.2011   -3.1911   -0.7914 H1        1 <0>        0.04605
     19 H8          0.2259   -2.3610   -2.2830 H1        1 <0>        0.04605
     20 H9          1.2994   -1.7127    1.3653 H1        1 <0>        0.04283
     21 H10        -0.4284   -1.5365    1.0626 H1        1 <0>        0.04283
     22 H11         0.7561    1.1544   -1.0094 H1        1 <0>        0.06702
     23 H12         0.1780    1.7539    2.5682 HC        1 <0>        0.04847
     24 H13         0.6425    0.1484    3.1631 HC        1 <0>        0.04847
     25 H14        -0.9526    0.3940    2.4260 HC        1 <0>        0.04847
     26 H15        -0.1223    3.1058   -0.4938 HO        1 <0>        0.40070
     27 H16         2.4181    0.1282    1.8426 HO        1 <0>        0.39665
@<TRIPOS>BOND
     1    1    2 1
     2    1    3 1
     3    2    4 1
     4    3    6 1
     5    4    9 1
     6    5    7 1
     7    5    9 1
     8    6    7 1
     9    6   10 1
    10    7    8 1
    11    7   11 1
    12    1   12 1
    13    1   13 1
    14    2   14 1
    15    2   15 1
    16    3   16 1
    17    3   17 1
    18    4   18 1
    19    4   19 1
    20    5   20 1
    21    5   21 1
    22    6   22 1
    23    8   23 1
    24    8   24 1
    25    8   25 1
    26   10   26 1
    27   11   27 1
@<TRIPOS>SUBSTRUCTURE
     1 <0>         1 GROUP 0 A     ****
