@<TRIPOS>MOLECULE
AlkEthOH_r632
   27    27     1     0     0
SMALL
USER_CHARGES

@<TRIPOS>ATOM
      1 C1          1.6432    1.9407    0.5554 CT        1 <0>       -0.10088
      2 C2          2.2713    0.5405    0.4863 CT        1 <0>       -0.10088
      3 C3          0.2402    1.9867    1.1645 CT        1 <0>        0.13401
      4 C4          2.1142   -0.1482   -0.8743 CT        1 <0>        0.13401
      5 C5         -1.1668    0.0673    0.9558 CT        1 <0>        0.12513
      6 C6          0.1280   -1.4425   -0.6036 CT        1 <0>        0.12513
      7 C7         -1.2703   -1.0491   -0.0961 CT        1 <0>        0.12938
      8 C8         -2.1877   -0.6377   -1.2517 CT        1 <0>       -0.11367
      9 O1         -0.6824    1.2665    0.3596 OS        1 <0>       -0.40231
     10 O2          0.7550   -0.3366   -1.2464 OS        1 <0>       -0.40231
     11 O3         -1.8448   -2.1876    0.5504 OH        1 <0>       -0.60656
     12 H1          2.2889    2.5761    1.1740 HC        1 <0>        0.04657
     13 H2          1.6241    2.3862   -0.4464 HC        1 <0>        0.04657
     14 H3          3.3479    0.6408    0.6735 HC        1 <0>        0.04657
     15 H4          1.8734   -0.0886    1.2893 HC        1 <0>        0.04657
     16 H5          0.2477    1.6438    2.2059 H1        1 <0>        0.04238
     17 H6         -0.0962    3.0295    1.1790 H1        1 <0>        0.04238
     18 H7          2.5737    0.4777   -1.6474 H1        1 <0>        0.04238
     19 H8          2.6451   -1.1076   -0.8884 H1        1 <0>        0.04238
     20 H9         -2.1500    0.2754    1.3944 H1        1 <0>        0.04143
     21 H10        -0.5277   -0.2756    1.7799 H1        1 <0>        0.04143
     22 H11         0.7280   -1.8346    0.2279 H1        1 <0>        0.04143
     23 H12         0.0528   -2.2591   -1.3318 H1        1 <0>        0.04143
     24 H13        -2.2423   -1.4441   -1.9788 HC        1 <0>        0.05133
     25 H14        -1.7918    0.2539   -1.7316 HC        1 <0>        0.05133
     26 H15        -3.1840   -0.4290   -0.8696 HC        1 <0>        0.05133
     27 H16        -1.9037   -2.8812   -0.1229 HO        1 <0>        0.40344
@<TRIPOS>BOND
     1    1    2 1
     2    1    3 1
     3    2    4 1
     4    3    9 1
     5    4   10 1
     6    5    7 1
     7    5    9 1
     8    6    7 1
     9    6   10 1
    10    7    8 1
    11    7   11 1
    12    1   12 1
    13    1   13 1
    14    2   14 1
    15    2   15 1
    16    3   16 1
    17    3   17 1
    18    4   18 1
    19    4   19 1
    20    5   20 1
    21    5   21 1
    22    6   22 1
    23    6   23 1
    24    8   24 1
    25    8   25 1
    26    8   26 1
    27   11   27 1
@<TRIPOS>SUBSTRUCTURE
     1 <0>         1 GROUP 0 A     ****
