@<TRIPOS>MOLECULE
AlkEthOH_r979
   28    28     1     0     0
SMALL
USER_CHARGES

@<TRIPOS>ATOM
      1 C1          0.6930    0.7783   -1.9560 CT        1 <0>       -0.11089
      2 C2          0.6345   -0.6526   -1.4256 CT        1 <0>       -0.06846
      3 C3          1.3304    1.7764   -0.9980 CT        1 <0>        0.13077
      4 C4         -0.2591    1.3083    0.7248 CT        1 <0>        0.13459
      5 C5         -0.5943   -0.9253   -0.5253 CT        1 <0>       -0.04982
      6 C6         -0.5828   -0.2004    0.8688 CT        1 <0>       -0.07004
      7 C7         -0.7751   -2.4506   -0.4169 CT        1 <0>       -0.09197
      8 C8          0.4340   -0.8427    1.8379 CT        1 <0>       -0.08594
      9 C9         -1.9850   -0.2979    1.5150 CT        1 <0>       -0.08594
     10 O1          1.1044    1.5065    0.3754 OS        1 <0>       -0.41509
     11 H1          1.2595    0.7998   -2.8952 HC        1 <0>        0.04281
     12 H2         -0.3186    1.1135   -2.2163 HC        1 <0>        0.04281
     13 H3          0.5677   -1.3106   -2.3024 HC        1 <0>        0.04680
     14 H4          1.5684   -0.9191   -0.9179 HC        1 <0>        0.04680
     15 H5          2.4166    1.7663   -1.1402 H1        1 <0>        0.04225
     16 H6          0.9944    2.7942   -1.2279 H1        1 <0>        0.04225
     17 H7         -0.9378    1.8108    0.0239 H1        1 <0>        0.04366
     18 H8         -0.3963    1.8041    1.6935 H1        1 <0>        0.04366
     19 H9         -1.4741   -0.5562   -1.0725 HC        1 <0>        0.03862
     20 H10         0.0691   -2.8727    0.1175 HC        1 <0>        0.03447
     21 H11        -0.8270   -2.8752   -1.4136 HC        1 <0>        0.03447
     22 H12        -1.6928   -2.6636    0.1205 HC        1 <0>        0.03447
     23 H13         0.2070   -1.8970    1.9380 HC        1 <0>        0.03662
     24 H14         0.3579   -0.3547    2.8018 HC        1 <0>        0.03662
     25 H15         1.4317   -0.7153    1.4362 HC        1 <0>        0.03662
     26 H16        -2.2444   -1.3422    1.6309 HC        1 <0>        0.03662
     27 H17        -2.7018    0.1939    0.8703 HC        1 <0>        0.03662
     28 H18        -1.9589    0.1884    2.4815 HC        1 <0>        0.03662
@<TRIPOS>BOND
     1    1    2 1
     2    1    3 1
     3    2    5 1
     4    3   10 1
     5    4    6 1
     6    4   10 1
     7    5    6 1
     8    5    7 1
     9    6    8 1
    10    6    9 1
    11    1   11 1
    12    1   12 1
    13    2   13 1
    14    2   14 1
    15    3   15 1
    16    3   16 1
    17    4   17 1
    18    4   18 1
    19    5   19 1
    20    7   20 1
    21    7   21 1
    22    7   22 1
    23    8   23 1
    24    8   24 1
    25    8   25 1
    26    9   26 1
    27    9   27 1
    28    9   28 1
@<TRIPOS>SUBSTRUCTURE
     1 <0>         1 GROUP 0 A     ****
