@<TRIPOS>MOLECULE
AlkEthOH_r426
   29    29     1     0     0
SMALL
USER_CHARGES

@<TRIPOS>ATOM
      1 C1          1.6326   -0.6677   -1.2655 CT        1 <0>       -0.06754
      2 C2          1.3939   -1.8601   -0.3492 CT        1 <0>       -0.10691
      3 C3          0.3354    0.0368   -1.6707 CT        1 <0>       -0.06629
      4 C4          1.1743   -1.5027    1.1151 CT        1 <0>        0.15701
      5 C5         -0.3764    0.8916   -0.5807 CT        1 <0>       -0.04298
      6 C6         -0.6582    0.0621    0.7234 CT        1 <0>        0.35675
      7 C7         -1.6989    1.3892   -1.2156 CT        1 <0>       -0.08878
      8 C8          0.4947    2.1359   -0.2851 CT        1 <0>       -0.08878
      9 C9         -1.4590    0.8483    1.7749 CT        1 <0>       -0.12077
     10 O1          0.5900   -0.2356    1.3647 OS        1 <0>       -0.46249
     11 O2         -1.4285   -1.0979    0.3886 OH        1 <0>       -0.61196
     12 H1          2.3523    0.0299   -0.8248 HC        1 <0>        0.04274
     13 H2          2.0977   -1.0455   -2.1852 HC        1 <0>        0.04274
     14 H3          0.5386   -2.4391   -0.7183 HC        1 <0>        0.04770
     15 H4          2.2497   -2.5444   -0.4077 HC        1 <0>        0.04770
     16 H5          0.5680    0.6845   -2.5276 HC        1 <0>        0.04433
     17 H6         -0.3634   -0.7158   -2.0606 HC        1 <0>        0.04433
     18 H7          0.5873   -2.2811    1.6164 H1        1 <0>        0.03717
     19 H8          2.1479   -1.4883    1.6183 H1        1 <0>        0.03717
     20 H9         -2.2283    1.9905   -0.4889 HC        1 <0>        0.03934
     21 H10        -2.2945    0.5307   -1.4949 HC        1 <0>        0.03934
     22 H11        -1.4634    1.9810   -2.0898 HC        1 <0>        0.03934
     23 H12         0.0042    2.7335    0.4721 HC        1 <0>        0.03934
     24 H13         0.6061    2.7084   -1.1966 HC        1 <0>        0.03934
     25 H14         1.4632    1.8077    0.0692 HC        1 <0>        0.03934
     26 H15        -1.6186    0.2215    2.6463 HC        1 <0>        0.05205
     27 H16        -2.4161    1.1381    1.3536 HC        1 <0>        0.05205
     28 H17        -0.9022    1.7350    2.0603 HC        1 <0>        0.05205
     29 H18        -1.5751   -1.5726    1.2192 HO        1 <0>        0.40667
@<TRIPOS>BOND
     1    1    2 1
     2    1    3 1
     3    2    4 1
     4    3    5 1
     5    4   10 1
     6    5    6 1
     7    5    7 1
     8    5    8 1
     9    6    9 1
    10    6   10 1
    11    6   11 1
    12    1   12 1
    13    1   13 1
    14    2   14 1
    15    2   15 1
    16    3   16 1
    17    3   17 1
    18    4   18 1
    19    4   19 1
    20    7   20 1
    21    7   21 1
    22    7   22 1
    23    8   23 1
    24    8   24 1
    25    8   25 1
    26    9   26 1
    27    9   27 1
    28    9   28 1
    29   11   29 1
@<TRIPOS>SUBSTRUCTURE
     1 <0>         1 GROUP 0 A     ****
