@<TRIPOS>MOLECULE
AlkEthOH_r341
   22    22     1     0     0
SMALL
USER_CHARGES

@<TRIPOS>ATOM
      1 C1          0.5458    0.8721   -0.3772 CT        1 <0>       -0.07475
      2 C2         -0.0830    2.1483    0.1726 CT        1 <0>       -0.07423
      3 C3          0.5463    0.8574   -1.9023 CT        1 <0>       -0.07423
      4 C4          0.5888    3.3990   -0.3973 CT        1 <0>       -0.08113
      5 C5          1.2221    2.1031   -2.4773 CT        1 <0>       -0.08113
      6 C6          0.6065    3.4027   -1.9336 CT        1 <0>        0.14928
      7 C7          1.3682    4.6222   -2.4559 CT        1 <0>       -0.12231
      8 O1         -0.7457    3.5046   -2.3900 OH        1 <0>       -0.59642
      9 H1          1.5764    0.7867   -0.0113 HC        1 <0>        0.03735
     10 H2          0.0000   -0.0002   -0.0002 HC        1 <0>        0.03735
     11 H3         -1.1533    2.1617   -0.0667 HC        1 <0>        0.04483
     12 H4         -0.0031    2.1555    1.2656 HC        1 <0>        0.04483
     13 H5          1.0650   -0.0389   -2.2611 HC        1 <0>        0.04483
     14 H6         -0.4855    0.7935   -2.2688 HC        1 <0>        0.04483
     15 H7          0.0482    4.2780   -0.0247 HC        1 <0>        0.04510
     16 H8          1.6145    3.4589   -0.0116 HC        1 <0>        0.04510
     17 H9          2.2929    2.0699   -2.2392 HC        1 <0>        0.04510
     18 H10         1.1310    2.0697   -3.5700 HC        1 <0>        0.04510
     19 H11         1.3733    4.6130   -3.5438 HC        1 <0>        0.04163
     20 H12         2.3932    4.5975   -2.0923 HC        1 <0>        0.04163
     21 H13         0.8856    5.5328   -2.1073 HC        1 <0>        0.04163
     22 H14        -0.7056    3.5048   -3.3574 HO        1 <0>        0.39561
@<TRIPOS>BOND
     1    1    2 1
     2    1    3 1
     3    2    4 1
     4    3    5 1
     5    4    6 1
     6    5    6 1
     7    6    7 1
     8    6    8 1
     9    1    9 1
    10    1   10 1
    11    2   11 1
    12    2   12 1
    13    3   13 1
    14    3   14 1
    15    4   15 1
    16    4   16 1
    17    5   17 1
    18    5   18 1
    19    7   19 1
    20    7   20 1
    21    7   21 1
    22    8   22 1
@<TRIPOS>SUBSTRUCTURE
     1 <0>         1 GROUP 0 A     ****
