@<TRIPOS>MOLECULE
AlkEthOH_r753
   21    21     1     0     0
SMALL
USER_CHARGES

@<TRIPOS>ATOM
      1 C1         -0.6134    1.1684    1.1474 CT        1 <0>       -0.14286
      2 C2         -0.1074   -0.0450    1.9218 CT        1 <0>        0.14163
      3 C3         -0.0321   -1.8730    0.3961 CT        1 <0>        0.32616
      4 C4         -0.1214    1.2561   -0.3028 CT        1 <0>        0.12251
      5 C5         -0.2984   -0.0367   -1.1163 CT        1 <0>        0.15512
      6 C6          0.1001    0.1712   -2.5759 CT        1 <0>       -0.09610
      7 O1         -0.7537   -1.2135    1.4307 OS        1 <0>       -0.46128
      8 O2          0.5660   -1.0487   -0.5985 OS        1 <0>       -0.43006
      9 O3          1.2604    1.6212   -0.3026 OH        1 <0>       -0.58204
     10 H1         -1.7102    1.1453    1.1363 HC        1 <0>        0.05300
     11 H2         -0.3023    2.0732    1.6835 HC        1 <0>        0.05300
     12 H3          0.9843   -0.1412    1.8981 H1        1 <0>        0.05816
     13 H4         -0.4036    0.0618    2.9708 H1        1 <0>        0.05816
     14 H5          0.7640   -2.4678    0.8564 H2        1 <0>        0.05895
     15 H6         -0.7147   -2.5752   -0.0941 H2        1 <0>        0.05895
     16 H7         -0.6673    2.0704   -0.7958 H1        1 <0>        0.03309
     17 H8         -1.3414   -0.3639   -1.0935 H1        1 <0>        0.05188
     18 H9          1.1371    0.4985   -2.6328 HC        1 <0>        0.04892
     19 H10        -0.5379    0.9286   -3.0288 HC        1 <0>        0.04892
     20 H11        -0.0097   -0.7624   -3.1255 HC        1 <0>        0.04892
     21 H12         1.3147    2.4815    0.1394 HO        1 <0>        0.39497
@<TRIPOS>BOND
     1    1    2 1
     2    1    4 1
     3    2    7 1
     4    3    7 1
     5    3    8 1
     6    4    5 1
     7    4    9 1
     8    5    6 1
     9    5    8 1
    10    1   10 1
    11    1   11 1
    12    2   12 1
    13    2   13 1
    14    3   14 1
    15    3   15 1
    16    4   16 1
    17    5   17 1
    18    6   18 1
    19    6   19 1
    20    6   20 1
    21    9   21 1
@<TRIPOS>SUBSTRUCTURE
     1 <0>         1 GROUP 0 A     ****
