@<TRIPOS>MOLECULE
AlkEthOH_r128
   16    16     1     0     0
SMALL
USER_CHARGES

@<TRIPOS>ATOM
      1 C1         -0.3496    1.4076    0.7812 CT        1 <0>       -0.17509
      2 C2         -1.1552    1.0450   -0.4596 CT        1 <0>        0.13354
      3 C3          0.8365    0.4606    0.9477 CT        1 <0>        0.35041
      4 C4         -0.3952   -1.1819   -0.2645 CT        1 <0>        0.51235
      5 O1         -1.5358   -0.3278   -0.4042 OS        1 <0>       -0.45795
      6 O2          0.3955   -0.8972    0.8958 OS        1 <0>       -0.44862
      7 O3          1.8225    0.7541   -0.0371 OH        1 <0>       -0.60590
      8 O4          0.3813   -1.2604   -1.4594 OH        1 <0>       -0.65149
      9 H1         -0.0176    2.4491    0.7195 HC        1 <0>        0.07146
     10 H2         -1.0031    1.2979    1.6554 HC        1 <0>        0.07146
     11 H3         -2.0684    1.6467   -0.5058 H1        1 <0>        0.06053
     12 H4         -0.5884    1.2329   -1.3785 H1        1 <0>        0.06053
     13 H5          1.2908    0.6267    1.9305 H2        1 <0>        0.10953
     14 H6         -0.8034   -2.1838   -0.0957 H3        1 <0>        0.12008
     15 H7          2.0928    1.6745    0.1068 HO        1 <0>        0.42146
     16 H8         -0.2055   -1.6137   -2.1450 HO        1 <0>        0.42770
@<TRIPOS>BOND
     1    1    2 1
     2    1    3 1
     3    2    5 1
     4    3    6 1
     5    3    7 1
     6    4    5 1
     7    4    6 1
     8    4    8 1
     9    1    9 1
    10    1   10 1
    11    2   11 1
    12    2   12 1
    13    3   13 1
    14    4   14 1
    15    7   15 1
    16    8   16 1
@<TRIPOS>SUBSTRUCTURE
     1 <0>         1 GROUP 0 A     ****
