@<TRIPOS>MOLECULE
AlkEthOH_r1061
   26    26     1     0     0
SMALL
USER_CHARGES

@<TRIPOS>ATOM
      1 C1         -0.8696   -0.0037    1.4215 CT        1 <0>       -0.13539
      2 C2         -1.4830   -1.2571    0.7969 CT        1 <0>        0.13218
      3 C3         -1.0989   -0.4120   -1.4121 CT        1 <0>        0.09766
      4 C4          0.3096    0.1770   -1.4347 CT        1 <0>        0.11560
      5 C5          0.5730    0.3448    1.0109 CT        1 <0>        0.16277
      6 C6          0.4685    1.1097   -2.6321 CT        1 <0>       -0.09188
      7 C7          1.0761    1.4503    1.9598 CT        1 <0>       -0.10487
      8 C8          1.5447   -0.8375    1.1149 CT        1 <0>       -0.10487
      9 O1         -1.1145   -1.5367   -0.5438 OS        1 <0>       -0.42150
     10 O2          0.5941    0.9651   -0.2814 OS        1 <0>       -0.42448
     11 H1         -1.5136    0.8473    1.1597 HC        1 <0>        0.05541
     12 H2         -0.9424   -0.1115    2.5117 HC        1 <0>        0.05541
     13 H3         -1.1927   -2.1326    1.3885 H1        1 <0>        0.04401
     14 H4         -2.5764   -1.1984    0.8521 H1        1 <0>        0.04401
     15 H5         -1.8636    0.3205   -1.1292 H1        1 <0>        0.05569
     16 H6         -1.3542   -0.7925   -2.4070 H1        1 <0>        0.05569
     17 H7          1.0596   -0.6173   -1.5170 H1        1 <0>        0.05287
     18 H8         -0.2664    1.9117   -2.5769 HC        1 <0>        0.04503
     19 H9          0.3194    0.5538   -3.5567 HC        1 <0>        0.04503
     20 H10         1.4680    1.5425   -2.6342 HC        1 <0>        0.04503
     21 H11         2.0926    1.7139    1.6905 HC        1 <0>        0.04610
     22 H12         1.0496    1.0824    2.9792 HC        1 <0>        0.04610
     23 H13         0.4338    2.3186    1.8654 HC        1 <0>        0.04610
     24 H14         2.5378   -0.5184    0.8110 HC        1 <0>        0.04610
     25 H15         1.2085   -1.6412    0.4657 HC        1 <0>        0.04610
     26 H16         1.5767   -1.1911    2.1419 HC        1 <0>        0.04610
@<TRIPOS>BOND
     1    1    2 1
     2    1    5 1
     3    2    9 1
     4    3    4 1
     5    3    9 1
     6    4    6 1
     7    4   10 1
     8    5    7 1
     9    5    8 1
    10    5   10 1
    11    1   11 1
    12    1   12 1
    13    2   13 1
    14    2   14 1
    15    3   15 1
    16    3   16 1
    17    4   17 1
    18    6   18 1
    19    6   19 1
    20    6   20 1
    21    7   21 1
    22    7   22 1
    23    7   23 1
    24    8   24 1
    25    8   25 1
    26    8   26 1
@<TRIPOS>SUBSTRUCTURE
     1 <0>         1 GROUP 0 A     ****
