@<TRIPOS>MOLECULE
AlkEthOH_r434
   33    33     1     0     0
SMALL
USER_CHARGES

@<TRIPOS>ATOM
      1 C1          0.8194    0.7920   -2.1600 CT        1 <0>       -0.06468
      2 C2          0.8952   -0.7355   -2.1966 CT        1 <0>       -0.10951
      3 C3          0.5867    1.4840   -0.8075 CT        1 <0>       -0.06970
      4 C4         -1.2707   -0.0454    0.3088 CT        1 <0>       -0.08633
      5 C5          1.9362   -1.3361   -1.2568 CT        1 <0>        0.13128
      6 C6          0.5885   -1.8182    0.6556 CT        1 <0>        0.09793
      7 C7         -0.8065    1.3571   -0.1608 CT        1 <0>        0.17214
      8 C8         -0.4604   -0.9040    1.3160 CT        1 <0>        0.14989
      9 C9         -0.9210    2.3911    0.9754 CT        1 <0>       -0.12344
     10 C10        -1.4421   -1.8104    2.0816 CT        1 <0>       -0.12661
     11 O1          1.6547   -1.0549    0.1070 OS        1 <0>       -0.41698
     12 O2         -1.7556    1.7766   -1.1633 OH        1 <0>       -0.61037
     13 O3          0.1756   -0.0964    2.3007 OH        1 <0>       -0.58920
     14 H1          1.7682    1.1756   -2.5593 HC        1 <0>        0.04622
     15 H2          0.0518    1.1172   -2.8728 HC        1 <0>        0.04622
     16 H3         -0.0914   -1.1595   -2.0013 HC        1 <0>        0.04504
     17 H4          1.1497   -1.0353   -3.2210 HC        1 <0>        0.04504
     18 H5          1.3737    1.2350   -0.0906 HC        1 <0>        0.05923
     19 H6          0.7421    2.5532   -1.0187 HC        1 <0>        0.05923
     20 H7         -2.2618    0.1246    0.7596 HC        1 <0>        0.04690
     21 H8         -1.5250   -0.6610   -0.5624 HC        1 <0>        0.04690
     22 H9          2.0205   -2.4191   -1.4055 H1        1 <0>        0.04549
     23 H10         2.9185   -0.9057   -1.4805 H1        1 <0>        0.04549
     24 H11         1.0472   -2.4648    1.4132 H1        1 <0>        0.04452
     25 H12         0.1196   -2.4753   -0.0871 H1        1 <0>        0.04452
     26 H13        -1.8994    2.3075    1.4353 HC        1 <0>        0.04698
     27 H14        -0.7923    3.3864    0.5648 HC        1 <0>        0.04698
     28 H15        -0.1506    2.1958    1.7131 HC        1 <0>        0.04698
     29 H16        -0.8882   -2.4165    2.7897 HC        1 <0>        0.04292
     30 H17        -1.9591   -2.4508    1.3758 HC        1 <0>        0.04292
     31 H18        -2.1592   -1.1918    2.6098 HC        1 <0>        0.04292
     32 H19        -2.6233    1.6936   -0.7493 HO        1 <0>        0.39378
     33 H20         0.6570   -0.7013    2.8866 HO        1 <0>        0.40730
@<TRIPOS>BOND
     1    1    2 1
     2    1    3 1
     3    2    5 1
     4    3    7 1
     5    4    7 1
     6    4    8 1
     7    5   11 1
     8    6    8 1
     9    6   11 1
    10    7    9 1
    11    7   12 1
    12    8   10 1
    13    8   13 1
    14    1   14 1
    15    1   15 1
    16    2   16 1
    17    2   17 1
    18    3   18 1
    19    3   19 1
    20    4   20 1
    21    4   21 1
    22    5   22 1
    23    5   23 1
    24    6   24 1
    25    6   25 1
    26    9   26 1
    27    9   27 1
    28    9   28 1
    29   10   29 1
    30   10   30 1
    31   10   31 1
    32   12   32 1
    33   13   33 1
@<TRIPOS>SUBSTRUCTURE
     1 <0>         1 GROUP 0 A     ****
