@<TRIPOS>MOLECULE
AlkEthOH_r699
   24    24     1     0     0
SMALL
USER_CHARGES

@<TRIPOS>ATOM
      1 C1         -1.3446    0.9977   -1.6153 CT        1 <0>       -0.06064
      2 C2         -1.4581   -0.4968   -1.2995 CT        1 <0>       -0.11069
      3 C3         -0.3057    1.8063   -0.8331 CT        1 <0>       -0.11069
      4 C4         -0.1438   -1.2766   -1.3220 CT        1 <0>        0.15504
      5 C5         -0.3665    1.6604    0.6871 CT        1 <0>        0.15504
      6 C6          0.7168   -0.5041    0.8417 CT        1 <0>        0.53074
      7 C7          0.4726   -1.8486    1.5407 CT        1 <0>       -0.11242
      8 O1          0.9191   -0.7155   -0.5608 OS        1 <0>       -0.46187
      9 O2         -0.4092    0.3215    1.1689 OS        1 <0>       -0.46187
     10 O3          1.9193    0.0557    1.3922 OH        1 <0>       -0.61332
     11 H1         -1.1268    1.1122   -2.6848 HC        1 <0>        0.03432
     12 H2         -2.3314    1.4517   -1.4589 HC        1 <0>        0.03432
     13 H3         -1.9544   -0.6266   -0.3319 HC        1 <0>        0.05372
     14 H4         -2.1405   -0.9525   -2.0284 HC        1 <0>        0.05372
     15 H5          0.6969    1.5504   -1.1924 HC        1 <0>        0.05372
     16 H6         -0.4320    2.8676   -1.0825 HC        1 <0>        0.05372
     17 H7         -0.3108   -2.3142   -1.0137 H1        1 <0>        0.04921
     18 H8          0.2142   -1.3233   -2.3568 H1        1 <0>        0.04921
     19 H9          0.4673    2.1947    1.1558 H1        1 <0>        0.04921
     20 H10        -1.2822    2.1435    1.0464 H1        1 <0>        0.04921
     21 H11         0.3194   -1.6850    2.6050 HC        1 <0>        0.05989
     22 H12         1.3339   -2.4971    1.3973 HC        1 <0>        0.05989
     23 H13        -0.4100   -2.3247    1.1196 HC        1 <0>        0.05989
     24 H14         2.6225   -0.5826    1.2066 HO        1 <0>        0.43065
@<TRIPOS>BOND
     1    1    2 1
     2    1    3 1
     3    2    4 1
     4    3    5 1
     5    4    8 1
     6    5    9 1
     7    6    7 1
     8    6    8 1
     9    6    9 1
    10    6   10 1
    11    1   11 1
    12    1   12 1
    13    2   13 1
    14    2   14 1
    15    3   15 1
    16    3   16 1
    17    4   17 1
    18    4   18 1
    19    5   19 1
    20    5   20 1
    21    7   21 1
    22    7   22 1
    23    7   23 1
    24   10   24 1
@<TRIPOS>SUBSTRUCTURE
     1 <0>         1 GROUP 0 A     ****
