@<TRIPOS>MOLECULE
AlkEthOH_r189
   24    24     1     0     0
SMALL
USER_CHARGES

@<TRIPOS>ATOM
      1 C1          1.5905    1.4297    0.8494 CT        1 <0>       -0.07440
      2 C2          2.2189    0.0396    0.8999 CT        1 <0>       -0.10844
      3 C3          0.0623    1.4575    0.8766 CT        1 <0>       -0.10693
      4 C4          1.6962   -0.9209   -0.1591 CT        1 <0>        0.13554
      5 C5         -0.5608    0.8665   -0.3929 CT        1 <0>        0.13440
      6 C6         -0.7025   -0.6753   -0.3806 CT        1 <0>        0.34830
      7 C7         -1.9296   -1.1413    0.4136 CT        1 <0>       -0.10302
      8 O1          0.3997   -1.3661    0.2104 OS        1 <0>       -0.45160
      9 O2         -1.8510    1.4501   -0.5982 OH        1 <0>       -0.59218
     10 O3         -0.9237   -1.1396   -1.7191 OH        1 <0>       -0.62112
     11 H1          1.9651    2.0062    1.7042 HC        1 <0>        0.04010
     12 H2          1.9451    1.9513   -0.0486 HC        1 <0>        0.04010
     13 H3          3.3033    0.1489    0.7808 HC        1 <0>        0.05142
     14 H4          2.0417   -0.3864    1.8952 HC        1 <0>        0.05142
     15 H5         -0.3149    0.9510    1.7724 HC        1 <0>        0.05409
     16 H6         -0.2532    2.5047    0.9741 HC        1 <0>        0.05409
     17 H7          1.7228   -0.4981   -1.1694 H1        1 <0>        0.05191
     18 H8          2.3383   -1.8084   -0.1657 H1        1 <0>        0.05191
     19 H9          0.0364    1.1730   -1.2607 H1        1 <0>        0.05444
     20 H10        -1.9831   -2.2257    0.3914 HC        1 <0>        0.05750
     21 H11        -2.8275   -0.7242   -0.0325 HC        1 <0>        0.05750
     22 H12        -1.8436   -0.8027    1.4418 HC        1 <0>        0.05750
     23 H13        -1.7058    2.4029   -0.6903 HO        1 <0>        0.40312
     24 H14        -1.0049   -2.1013   -1.6578 HO        1 <0>        0.41435
@<TRIPOS>BOND
     1    1    2 1
     2    1    3 1
     3    2    4 1
     4    3    5 1
     5    4    8 1
     6    5    6 1
     7    5    9 1
     8    6    7 1
     9    6    8 1
    10    6   10 1
    11    1   11 1
    12    1   12 1
    13    2   13 1
    14    2   14 1
    15    3   15 1
    16    3   16 1
    17    4   17 1
    18    4   18 1
    19    5   19 1
    20    7   20 1
    21    7   21 1
    22    7   22 1
    23    9   23 1
    24   10   24 1
@<TRIPOS>SUBSTRUCTURE
     1 <0>         1 GROUP 0 A     ****
