@<TRIPOS>MOLECULE
AlkEthOH_r713
   31    31     1     0     0
SMALL
USER_CHARGES

@<TRIPOS>ATOM
      1 C1         -2.4171    1.2805   -0.7937 CT        1 <0>       -0.10500
      2 C2         -2.5896   -0.2332   -0.6313 CT        1 <0>        0.14226
      3 C3         -0.9968    1.7851   -0.5544 CT        1 <0>        0.14027
      4 C4         -0.6956   -1.5245    0.0305 CT        1 <0>        0.09139
      5 C5          0.8213   -1.3594   -0.1656 CT        1 <0>        0.35011
      6 C6          0.8735    0.9768    0.7406 CT        1 <0>        0.35660
      7 C7          1.2472   -1.9770   -1.5027 CT        1 <0>       -0.11306
      8 C8          1.7112    2.2329    0.4449 CT        1 <0>       -0.10263
      9 C9          1.1926    0.5424    2.1751 CT        1 <0>       -0.10263
     10 O1         -1.4156   -0.9259   -1.0468 OS        1 <0>       -0.41291
     11 O2         -0.5239    1.3071    0.7018 OS        1 <0>       -0.45764
     12 O3          1.2714    0.0002   -0.2327 OS        1 <0>       -0.43211
     13 O4          1.5214   -2.1049    0.8344 OH        1 <0>       -0.62466
     14 H1         -2.7090    1.5672   -1.8113 HC        1 <0>        0.05012
     15 H2         -3.1171    1.7813   -0.1146 HC        1 <0>        0.05012
     16 H3         -2.8721   -0.4808    0.3989 H1        1 <0>        0.04273
     17 H4         -3.4168   -0.5675   -1.2671 H1        1 <0>        0.04273
     18 H5         -0.3582    1.4581   -1.3830 H1        1 <0>        0.04185
     19 H6         -0.9893    2.8801   -0.5366 H1        1 <0>        0.04185
     20 H7         -0.9597   -2.5889    0.0597 H1        1 <0>        0.05083
     21 H8         -0.9934   -1.1190    1.0031 H1        1 <0>        0.05083
     22 H9          2.3190   -1.8557   -1.6323 HC        1 <0>        0.05581
     23 H10         0.7254   -1.4780   -2.3143 HC        1 <0>        0.05581
     24 H11         0.9989   -3.0346   -1.5082 HC        1 <0>        0.05581
     25 H12         1.5087    2.5685   -0.5670 HC        1 <0>        0.05387
     26 H13         2.7646    1.9929    0.5460 HC        1 <0>        0.05387
     27 H14         1.4454    3.0146    1.1491 HC        1 <0>        0.05387
     28 H15         0.6175   -0.3461    2.4222 HC        1 <0>        0.05387
     29 H16         0.9340    1.3429    2.8632 HC        1 <0>        0.05387
     30 H17         2.2534    0.3213    2.2603 HC        1 <0>        0.05387
     31 H18         1.2560   -3.0289    0.7187 HO        1 <0>        0.40830
@<TRIPOS>BOND
     1    1    2 1
     2    1    3 1
     3    2   10 1
     4    3   11 1
     5    4    5 1
     6    4   10 1
     7    5    7 1
     8    5   12 1
     9    5   13 1
    10    6    8 1
    11    6    9 1
    12    6   11 1
    13    6   12 1
    14    1   14 1
    15    1   15 1
    16    2   16 1
    17    2   17 1
    18    3   18 1
    19    3   19 1
    20    4   20 1
    21    4   21 1
    22    7   22 1
    23    7   23 1
    24    7   24 1
    25    8   25 1
    26    8   26 1
    27    8   27 1
    28    9   28 1
    29    9   29 1
    30    9   30 1
    31   13   31 1
@<TRIPOS>SUBSTRUCTURE
     1 <0>         1 GROUP 0 A     ****
