@<TRIPOS>MOLECULE
AlkEthOH_r598
   21    21     1     0     0
SMALL
USER_CHARGES

@<TRIPOS>ATOM
      1 C1         -0.1126    0.2233    1.4475 CT        1 <0>        0.11158
      2 C2         -0.2587   -0.9938    0.5511 CT        1 <0>        0.13676
      3 C3          0.3379    0.8608   -0.6611 CT        1 <0>        0.52028
      4 C4          0.5073   -2.1998    1.0792 CT        1 <0>       -0.10068
      5 C5         -1.7269   -1.3536    0.3103 CT        1 <0>       -0.10068
      6 C6         -0.4542    1.3941   -1.8489 CT        1 <0>       -0.09926
      7 O1         -0.2928    1.3155    0.5459 OS        1 <0>       -0.41589
      8 O2          0.3145   -0.5760   -0.6976 OS        1 <0>       -0.46990
      9 O3          1.6855    1.3295   -0.7262 OH        1 <0>       -0.61613
     10 H1         -0.8499    0.2703    2.2542 H1        1 <0>        0.06584
     11 H2          0.8900    0.3059    1.8829 H1        1 <0>        0.06584
     12 H3          0.3758   -3.0487    0.4079 HC        1 <0>        0.04879
     13 H4          0.1393   -2.4716    2.0687 HC        1 <0>        0.04879
     14 H5          1.5698   -1.9658    1.1491 HC        1 <0>        0.04879
     15 H6         -1.7884   -2.2276   -0.3341 HC        1 <0>        0.04879
     16 H7         -2.2344   -0.5187   -0.1673 HC        1 <0>        0.04879
     17 H8         -2.2102   -1.5725    1.2598 HC        1 <0>        0.04879
     18 H9          0.0021    1.0642   -2.7836 HC        1 <0>        0.06141
     19 H10        -0.4694    2.4849   -1.8313 HC        1 <0>        0.06141
     20 H11        -1.4812    1.0276   -1.8109 HC        1 <0>        0.06141
     21 H12         2.0532    0.9985   -1.5603 HO        1 <0>        0.42527
@<TRIPOS>BOND
     1    1    2 1
     2    1    7 1
     3    2    4 1
     4    2    5 1
     5    2    8 1
     6    3    6 1
     7    3    7 1
     8    3    8 1
     9    3    9 1
    10    1   10 1
    11    1   11 1
    12    4   12 1
    13    4   13 1
    14    4   14 1
    15    5   15 1
    16    5   16 1
    17    5   17 1
    18    6   18 1
    19    6   19 1
    20    6   20 1
    21    9   21 1
@<TRIPOS>SUBSTRUCTURE
     1 <0>         1 GROUP 0 A     ****
