@<TRIPOS>MOLECULE
AlkEthOH_r881
   29    29     1     0     0
SMALL
USER_CHARGES

@<TRIPOS>ATOM
      1 C1         -1.8467    1.1793   -0.2811 CT        1 <0>       -0.07726
      2 C2         -2.0734   -0.1198   -1.0594 CT        1 <0>       -0.06994
      3 C3         -1.5750    0.9940    1.2140 CT        1 <0>       -0.06514
      4 C4         -0.8710   -0.5793   -1.8943 CT        1 <0>       -0.09559
      5 C5         -0.4986   -0.0183    1.6115 CT        1 <0>       -0.11965
      6 C6          0.3698   -0.9601   -1.0803 CT        1 <0>        0.15228
      7 C7          0.9007    0.1717    0.9955 CT        1 <0>        0.35068
      8 C8          1.4715   -1.4739   -2.0031 CT        1 <0>       -0.10231
      9 C9          1.5197    1.4963    1.4518 CT        1 <0>       -0.11572
     10 O1          0.8777    0.2056   -0.4329 OS        1 <0>       -0.41057
     11 O2          1.7252   -0.8956    1.4783 OH        1 <0>       -0.62863
     12 H1         -1.0578    1.7836   -0.7429 HC        1 <0>        0.04661
     13 H2         -2.7582    1.7865   -0.3631 HC        1 <0>        0.04661
     14 H3         -2.4094   -0.9263   -0.3979 HC        1 <0>        0.03653
     15 H4         -2.8981    0.0532   -1.7635 HC        1 <0>        0.03653
     16 H5         -1.3339    1.9725    1.6465 HC        1 <0>        0.03586
     17 H6         -2.5121    0.6841    1.6951 HC        1 <0>        0.03586
     18 H7         -1.1850   -1.4418   -2.4955 HC        1 <0>        0.04637
     19 H8         -0.6161    0.2237   -2.5983 HC        1 <0>        0.04637
     20 H9         -0.4035   -0.0059    2.7064 HC        1 <0>        0.04959
     21 H10        -0.8686   -1.0272    1.3935 HC        1 <0>        0.04959
     22 H11         0.1237   -1.7586   -0.3721 H1        1 <0>        0.05747
     23 H12         1.7415   -0.7022   -2.7226 HC        1 <0>        0.04319
     24 H13         1.1234   -2.3550   -2.5402 HC        1 <0>        0.04319
     25 H14         2.3512   -1.7382   -1.4178 HC        1 <0>        0.04319
     26 H15         2.5051    1.6110    1.0068 HC        1 <0>        0.05255
     27 H16         1.6111    1.5021    2.5353 HC        1 <0>        0.05255
     28 H17         0.8852    2.3223    1.1395 HC        1 <0>        0.05255
     29 H18         1.7370   -0.8114    2.4423 HO        1 <0>        0.40724
@<TRIPOS>BOND
     1    1    2 1
     2    1    3 1
     3    2    4 1
     4    3    5 1
     5    4    6 1
     6    5    7 1
     7    6    8 1
     8    6   10 1
     9    7    9 1
    10    7   10 1
    11    7   11 1
    12    1   12 1
    13    1   13 1
    14    2   14 1
    15    2   15 1
    16    3   16 1
    17    3   17 1
    18    4   18 1
    19    4   19 1
    20    5   20 1
    21    5   21 1
    22    6   22 1
    23    8   23 1
    24    8   24 1
    25    8   25 1
    26    9   26 1
    27    9   27 1
    28    9   28 1
    29   11   29 1
@<TRIPOS>SUBSTRUCTURE
     1 <0>         1 GROUP 0 A     ****
