@<TRIPOS>MOLECULE
AlkEthOH_r1076
   31    31     1     0     0
SMALL
USER_CHARGES

@<TRIPOS>ATOM
      1 C1          1.3776   -1.5429   -0.0234 CT        1 <0>       -0.06959
      2 C2          1.3660   -1.5954   -1.5557 CT        1 <0>       -0.09787
      3 C3          1.4224   -0.1207    0.5553 CT        1 <0>       -0.07168
      4 C4          0.1414   -0.9634   -2.2064 CT        1 <0>        0.12980
      5 C5         -1.0475    0.8312   -1.1666 CT        1 <0>        0.13547
      6 C6         -1.1635    0.2157    0.2465 CT        1 <0>       -0.08667
      7 C7          0.0934    0.4216    1.1731 CT        1 <0>       -0.03575
      8 C8         -2.4819    0.7186    0.8631 CT        1 <0>       -0.09277
      9 C9         -0.1290   -0.3068    2.5234 CT        1 <0>       -0.09036
     10 C10         0.3215    1.9169    1.4921 CT        1 <0>       -0.09036
     11 O1          0.0993    0.4253   -1.9013 OS        1 <0>       -0.41858
     12 H1          0.5424   -2.1240    0.3794 HC        1 <0>        0.03646
     13 H2          2.2864   -2.0651    0.3040 HC        1 <0>        0.03646
     14 H3          2.2681   -1.0914   -1.9252 HC        1 <0>        0.04563
     15 H4          1.4332   -2.6430   -1.8721 HC        1 <0>        0.04563
     16 H5          2.1866   -0.1163    1.3463 HC        1 <0>        0.04863
     17 H6          1.8138    0.5806   -0.1920 HC        1 <0>        0.04863
     18 H7          0.2359   -1.0503   -3.2943 H1        1 <0>        0.03836
     19 H8         -0.7774   -1.4894   -1.9245 H1        1 <0>        0.03836
     20 H9         -1.9389    0.5948   -1.7616 H1        1 <0>        0.04430
     21 H10        -1.0092    1.9236   -1.0957 H1        1 <0>        0.04430
     22 H11        -1.2956   -0.8662    0.1271 HC        1 <0>        0.04852
     23 H12        -2.4205    1.7914    1.0098 HC        1 <0>        0.03590
     24 H13        -2.6398    0.2268    1.8167 HC        1 <0>        0.03590
     25 H14        -3.3010    0.4868    0.1910 HC        1 <0>        0.03590
     26 H15        -1.0460    0.0568    2.9659 HC        1 <0>        0.03423
     27 H16         0.7093   -0.0956    3.1727 HC        1 <0>        0.03423
     28 H17        -0.1992   -1.3693    2.3361 HC        1 <0>        0.03423
     29 H18        -0.5836    2.3253    1.9233 HC        1 <0>        0.03423
     30 H19         0.5632    2.4380    0.5745 HC        1 <0>        0.03423
     31 H20         1.1400    2.0044    2.1953 HC        1 <0>        0.03423
@<TRIPOS>BOND
     1    1    2 1
     2    1    3 1
     3    2    4 1
     4    3    7 1
     5    4   11 1
     6    5    6 1
     7    5   11 1
     8    6    7 1
     9    6    8 1
    10    7    9 1
    11    7   10 1
    12    1   12 1
    13    1   13 1
    14    2   14 1
    15    2   15 1
    16    3   16 1
    17    3   17 1
    18    4   18 1
    19    4   19 1
    20    5   20 1
    21    5   21 1
    22    6   22 1
    23    8   23 1
    24    8   24 1
    25    8   25 1
    26    9   26 1
    27    9   27 1
    28    9   28 1
    29   10   29 1
    30   10   30 1
    31   10   31 1
@<TRIPOS>SUBSTRUCTURE
     1 <0>         1 GROUP 0 A     ****
