@<TRIPOS>MOLECULE
AlkEthOH_r635
   23    23     1     0     0
SMALL
USER_CHARGES

@<TRIPOS>ATOM
      1 C1         -1.9866   -0.6212    0.5250 CT        1 <0>       -0.14507
      2 C2         -1.1723   -0.3906    1.7938 CT        1 <0>        0.12924
      3 C3         -1.5683    0.2538   -0.6512 CT        1 <0>        0.13423
      4 C4          0.7959    0.5624    0.8722 CT        1 <0>        0.10588
      5 C5          0.8686    0.2628   -0.6345 CT        1 <0>        0.12562
      6 C6          1.2763    1.5288   -1.3977 CT        1 <0>       -0.10050
      7 C7          1.9058   -0.8380   -0.8983 CT        1 <0>       -0.10050
      8 O1          0.2310   -0.5303    1.5925 OS        1 <0>       -0.40511
      9 O2         -0.3503   -0.2278   -1.2016 OS        1 <0>       -0.41373
     10 H1         -1.8737   -1.6724    0.2318 HC        1 <0>        0.06025
     11 H2         -3.0446   -0.4485    0.7522 HC        1 <0>        0.06025
     12 H3         -1.3941    0.5897    2.2324 H1        1 <0>        0.04509
     13 H4         -1.4645   -1.1386    2.5389 H1        1 <0>        0.04509
     14 H5         -2.3229    0.1515   -1.4387 H1        1 <0>        0.04519
     15 H6         -1.5171    1.3175   -0.3961 H1        1 <0>        0.04519
     16 H7          1.8077    0.7196    1.2648 H1        1 <0>        0.05088
     17 H8          0.2457    1.4883    1.0816 H1        1 <0>        0.05088
     18 H9          1.3260    1.3113   -2.4613 HC        1 <0>        0.04452
     19 H10         2.2504    1.8635   -1.0513 HC        1 <0>        0.04452
     20 H11         0.5420    2.3105   -1.2225 HC        1 <0>        0.04452
     21 H12         1.9511   -1.0436   -1.9638 HC        1 <0>        0.04452
     22 H13         1.6179   -1.7402   -0.3666 HC        1 <0>        0.04452
     23 H14         2.8800   -0.5069   -0.5508 HC        1 <0>        0.04452
@<TRIPOS>BOND
     1    1    2 1
     2    1    3 1
     3    2    8 1
     4    3    9 1
     5    4    5 1
     6    4    8 1
     7    5    6 1
     8    5    7 1
     9    5    9 1
    10    1   10 1
    11    1   11 1
    12    2   12 1
    13    2   13 1
    14    3   14 1
    15    3   15 1
    16    4   16 1
    17    4   17 1
    18    6   18 1
    19    6   19 1
    20    6   20 1
    21    7   21 1
    22    7   22 1
    23    7   23 1
@<TRIPOS>SUBSTRUCTURE
     1 <0>         1 GROUP 0 A     ****
