@<TRIPOS>MOLECULE
AlkEthOH_r1016
   20    20     1     0     0
SMALL
USER_CHARGES

@<TRIPOS>ATOM
      1 C1         -0.6236    0.8840   -1.1502 CT        1 <0>       -0.11194
      2 C2         -0.7089    1.8360    0.0360 CT        1 <0>        0.12301
      3 C3          0.4758    0.3571    1.4482 CT        1 <0>        0.09111
      4 C4         -0.5068   -0.5703   -0.6767 CT        1 <0>       -0.06047
      5 C5          0.6299   -0.6924    0.3513 CT        1 <0>        0.11020
      6 C6         -0.3103   -1.5078   -1.8692 CT        1 <0>       -0.08803
      7 O1          0.4155    1.6696    0.8979 OS        1 <0>       -0.40789
      8 O2          0.6285   -1.9761    0.9628 OH        1 <0>       -0.59411
      9 H1         -1.5019    1.0094   -1.7931 HC        1 <0>        0.05374
     10 H2          0.2614    1.1395   -1.7470 HC        1 <0>        0.05374
     11 H3         -0.7076    2.8719   -0.3178 H1        1 <0>        0.04945
     12 H4         -1.6329    1.6821    0.6058 H1        1 <0>        0.04945
     13 H5         -0.4136    0.1688    2.0630 H1        1 <0>        0.05230
     14 H6          1.3329    0.3124    2.1292 H1        1 <0>        0.05230
     15 H7         -1.4490   -0.8600   -0.1914 HC        1 <0>        0.06263
     16 H8          1.5967   -0.5461   -0.1466 H1        1 <0>        0.04608
     17 H9          0.6152   -1.2579   -2.3838 HC        1 <0>        0.03961
     18 H10        -1.1442   -1.4023   -2.5601 HC        1 <0>        0.03961
     19 H11        -0.2605   -2.5377   -1.5218 HC        1 <0>        0.03961
     20 H12         1.3791   -1.9935    1.5781 HO        1 <0>        0.39960
@<TRIPOS>BOND
     1    1    2 1
     2    1    4 1
     3    2    7 1
     4    3    5 1
     5    3    7 1
     6    4    5 1
     7    4    6 1
     8    5    8 1
     9    1    9 1
    10    1   10 1
    11    2   11 1
    12    2   12 1
    13    3   13 1
    14    3   14 1
    15    4   15 1
    16    5   16 1
    17    6   17 1
    18    6   18 1
    19    6   19 1
    20    8   20 1
@<TRIPOS>SUBSTRUCTURE
     1 <0>         1 GROUP 0 A     ****
