@<TRIPOS>MOLECULE
AlkEthOH_r37
   24    24     1     0     0
SMALL
USER_CHARGES

@<TRIPOS>ATOM
      1 C1          2.1013    0.9398   -0.5450 CT        1 <0>       -0.07064
      2 C2          1.7683   -0.5543   -0.4577 CT        1 <0>       -0.08125
      3 C3          1.0294    1.9314   -0.0912 CT        1 <0>       -0.11256
      4 C4          1.1371   -1.0104    0.8662 CT        1 <0>       -0.10759
      5 C5         -0.3098    1.8188   -0.8178 CT        1 <0>        0.14071
      6 C6         -0.3861   -1.2227    0.8340 CT        1 <0>        0.10314
      7 C7         -1.1992    0.0395    0.5184 CT        1 <0>        0.34796
      8 O1         -0.8760    0.5152   -0.7850 OS        1 <0>       -0.43743
      9 O2         -0.6657   -2.2367   -0.1345 OH        1 <0>       -0.58152
     10 O3         -2.5993   -0.2205    0.6126 OH        1 <0>       -0.61164
     11 H1          2.9992    1.1246    0.0592 HC        1 <0>        0.03753
     12 H2          2.3844    1.1690   -1.5800 HC        1 <0>        0.03753
     13 H3          1.1555   -0.8538   -1.3150 HC        1 <0>        0.05595
     14 H4          2.7163   -1.0947   -0.5844 HC        1 <0>        0.05595
     15 H5          0.8836    1.8262    0.9890 HC        1 <0>        0.04566
     16 H6          1.4144    2.9484   -0.2374 HC        1 <0>        0.04566
     17 H7          1.5855   -1.9834    1.1102 HC        1 <0>        0.04351
     18 H8          1.4100   -0.3347    1.6843 HC        1 <0>        0.04351
     19 H9         -1.0296    2.5355   -0.4053 H1        1 <0>        0.04907
     20 H10        -0.1702    2.0785   -1.8728 H1        1 <0>        0.04907
     21 H11        -0.7034   -1.6250    1.8024 H1        1 <0>        0.04505
     22 H12        -0.9764    0.8142    1.2876 H2        1 <0>        0.07086
     23 H13        -0.1980   -3.0312    0.1617 HO        1 <0>        0.39875
     24 H14        -3.0468    0.6128    0.4025 HO        1 <0>        0.43272
@<TRIPOS>BOND
     1    1    2 1
     2    1    3 1
     3    2    4 1
     4    3    5 1
     5    4    6 1
     6    5    8 1
     7    6    7 1
     8    6    9 1
     9    7    8 1
    10    7   10 1
    11    1   11 1
    12    1   12 1
    13    2   13 1
    14    2   14 1
    15    3   15 1
    16    3   16 1
    17    4   17 1
    18    4   18 1
    19    5   19 1
    20    5   20 1
    21    6   21 1
    22    7   22 1
    23    9   23 1
    24   10   24 1
@<TRIPOS>SUBSTRUCTURE
     1 <0>         1 GROUP 0 A     ****
