@<TRIPOS>MOLECULE
AlkEthOH_r337
   30    30     1     0     0
SMALL
USER_CHARGES

@<TRIPOS>ATOM
      1 C1         -0.9487    1.8296    0.7650 CT        1 <0>       -0.07478
      2 C2         -1.0685    1.7687   -0.7501 CT        1 <0>       -0.07470
      3 C3         -0.8402    0.4388    1.3839 CT        1 <0>       -0.07000
      4 C4          0.0593    0.9547   -1.3780 CT        1 <0>       -0.07000
      5 C5          0.3096   -0.4234    0.7895 CT        1 <0>       -0.03626
      6 C6          0.1968   -0.4799   -0.7932 CT        1 <0>       -0.03626
      7 C7          1.6617    0.1790    1.2503 CT        1 <0>       -0.08772
      8 C8          0.2136   -1.8258    1.4366 CT        1 <0>       -0.08772
      9 C9          1.4409   -1.1258   -1.4490 CT        1 <0>       -0.08772
     10 C10        -1.0244   -1.3158   -1.2549 CT        1 <0>       -0.08772
     11 H1         -0.0759    2.4322    1.0415 HC        1 <0>        0.03818
     12 H2         -1.8232    2.3450    1.1791 HC        1 <0>        0.03818
     13 H3         -2.0393    1.3414   -1.0266 HC        1 <0>        0.03818
     14 H4         -1.0523    2.7864   -1.1574 HC        1 <0>        0.03818
     15 H5         -0.7075    0.5471    2.4684 HC        1 <0>        0.03837
     16 H6         -1.8005   -0.0763    1.2555 HC        1 <0>        0.03837
     17 H7         -0.1060    0.9049   -2.4624 HC        1 <0>        0.03837
     18 H8          1.0002    1.5040   -1.2487 HC        1 <0>        0.03837
     19 H9          2.4644   -0.4174    0.8392 HC        1 <0>        0.03389
     20 H10         1.6980    0.1618    2.3307 HC        1 <0>        0.03389
     21 H11         1.7283    1.1961    0.8895 HC        1 <0>        0.03389
     22 H12         1.0046   -2.4483    1.0395 HC        1 <0>        0.03389
     23 H13        -0.7515   -2.2541    1.1996 HC        1 <0>        0.03389
     24 H14         0.3226   -1.7237    2.5084 HC        1 <0>        0.03389
     25 H15         1.5603   -2.1280   -1.0586 HC        1 <0>        0.03389
     26 H16         2.3106   -0.5277   -1.2113 HC        1 <0>        0.03389
     27 H17         1.2929   -1.1587   -2.5204 HC        1 <0>        0.03389
     28 H18        -0.9332   -2.3144   -0.8506 HC        1 <0>        0.03389
     29 H19        -1.0326   -1.3489   -2.3356 HC        1 <0>        0.03389
     30 H20        -1.9254   -0.8441   -0.8879 HC        1 <0>        0.03389
@<TRIPOS>BOND
     1    1    2 1
     2    1    3 1
     3    2    4 1
     4    3    5 1
     5    4    6 1
     6    5    6 1
     7    5    7 1
     8    5    8 1
     9    6    9 1
    10    6   10 1
    11    1   11 1
    12    1   12 1
    13    2   13 1
    14    2   14 1
    15    3   15 1
    16    3   16 1
    17    4   17 1
    18    4   18 1
    19    7   19 1
    20    7   20 1
    21    7   21 1
    22    8   22 1
    23    8   23 1
    24    8   24 1
    25    9   25 1
    26    9   26 1
    27    9   27 1
    28   10   28 1
    29   10   29 1
    30   10   30 1
@<TRIPOS>SUBSTRUCTURE
     1 <0>         1 GROUP 0 A     ****
