@<TRIPOS>MOLECULE
AlkEthOH_r13
   13    13     1     0     0
SMALL
USER_CHARGES

@<TRIPOS>ATOM
      1 C1         -0.1629    1.2113    0.9410 CT        1 <0>       -0.09264
      2 C2         -0.7868    0.7508   -0.3898 CT        1 <0>       -0.10847
      3 C3          0.5179   -0.1680    1.0211 CT        1 <0>       -0.10847
      4 C4          0.3836   -0.2520   -0.5177 CT        1 <0>        0.11721
      5 O1          0.0482   -1.5421   -1.0546 OH        1 <0>       -0.58077
      6 H1          0.5408    2.0445    0.8320 HC        1 <0>        0.05043
      7 H2         -0.8678    1.4411    1.7436 HC        1 <0>        0.05043
      8 H3         -1.7704    0.2798   -0.2808 HC        1 <0>        0.05781
      9 H4         -0.8425    1.5153   -1.1692 HC        1 <0>        0.05781
     10 H5          1.5404   -0.1628    1.4072 HC        1 <0>        0.05781
     11 H6         -0.0642   -0.9228    1.5623 HC        1 <0>        0.05781
     12 H7          1.2472    0.1731   -1.0450 H1        1 <0>        0.04133
     13 H8          0.8737   -2.0445   -1.0703 HO        1 <0>        0.39971
@<TRIPOS>BOND
     1    1    2 1
     2    1    3 1
     3    2    4 1
     4    3    4 1
     5    4    5 1
     6    1    6 1
     7    1    7 1
     8    2    8 1
     9    2    9 1
    10    3   10 1
    11    3   11 1
    12    4   12 1
    13    5   13 1
@<TRIPOS>SUBSTRUCTURE
     1 <0>         1 GROUP 0 A     ****
