@<TRIPOS>MOLECULE
AlkEthOH_r200
   17    17     1     0     0
SMALL
USER_CHARGES

@<TRIPOS>ATOM
      1 C1         -0.3987    1.2726   -0.8740 CT        1 <0>        0.07826
      2 C2         -0.4171   -0.2559   -0.9065 CT        1 <0>        0.08354
      3 C3          0.0058   -0.1494    0.5774 CT        1 <0>        0.14867
      4 C4         -0.9129   -0.7970    1.6070 CT        1 <0>       -0.09410
      5 C5          1.4698   -0.4734    0.8433 CT        1 <0>       -0.09410
      6 O1         -0.1975    1.2900    0.5576 OS        1 <0>       -0.41684
      7 O2         -1.6846   -0.8703   -1.1928 OH        1 <0>       -0.57667
      8 H1          0.4342    1.7506   -1.3986 H1        1 <0>        0.05908
      9 H2         -1.3382    1.7554   -1.1570 H1        1 <0>        0.05908
     10 H3          0.3570   -0.6685   -1.5643 H1        1 <0>        0.05236
     11 H4         -0.5083   -0.6542    2.6088 HC        1 <0>        0.04925
     12 H5         -0.9995   -1.8651    1.4089 HC        1 <0>        0.04925
     13 H6         -1.9038   -0.3459    1.5575 HC        1 <0>        0.04925
     14 H7          1.6868   -0.3758    1.9073 HC        1 <0>        0.04925
     15 H8          2.1108    0.2117    0.2880 HC        1 <0>        0.04925
     16 H9          1.6892   -1.4946    0.5304 HC        1 <0>        0.04925
     17 H10        -1.9428   -0.5484   -2.0666 HO        1 <0>        0.40522
@<TRIPOS>BOND
     1    1    2 1
     2    1    6 1
     3    2    3 1
     4    2    7 1
     5    3    4 1
     6    3    5 1
     7    3    6 1
     8    1    8 1
     9    1    9 1
    10    2   10 1
    11    4   11 1
    12    4   12 1
    13    4   13 1
    14    5   14 1
    15    5   15 1
    16    5   16 1
    17    7   17 1
@<TRIPOS>SUBSTRUCTURE
     1 <0>         1 GROUP 0 A     ****
