@<TRIPOS>MOLECULE
AlkEthOH_r1086
   27    27     1     0     0
SMALL
USER_CHARGES

@<TRIPOS>ATOM
      1 C1         -0.4824    2.2356    1.1691 CT        1 <0>       -0.10528
      2 C2         -1.2388    1.0054    1.6696 CT        1 <0>        0.12664
      3 C3          0.0343    2.0533   -0.2577 CT        1 <0>        0.13700
      4 C4         -0.8447   -1.3007    1.1676 CT        1 <0>        0.11665
      5 C5         -0.7874   -1.2621   -0.3648 CT        1 <0>        0.11463
      6 C6          0.9783    0.0987   -1.2849 CT        1 <0>        0.33549
      7 C7         -1.3560   -2.5534   -0.9431 CT        1 <0>       -0.10383
      8 C8          2.3762   -0.0858   -1.8611 CT        1 <0>       -0.09042
      9 O1         -0.3437   -0.1000    1.7515 OS        1 <0>       -0.39164
     10 O2          1.0855    1.0906   -0.2643 OS        1 <0>       -0.42182
     11 O3          0.5788   -1.1817   -0.7819 OS        1 <0>       -0.42418
     12 H1         -1.1475    3.1050    1.2062 HC        1 <0>        0.06225
     13 H2          0.3692    2.4233    1.8339 HC        1 <0>        0.06225
     14 H3         -1.6194    1.1960    2.6784 H1        1 <0>        0.02985
     15 H4         -2.1013    0.7995    1.0252 H1        1 <0>        0.02985
     16 H5         -0.7915    1.7872   -0.9263 H1        1 <0>        0.02736
     17 H6          0.4580    2.9978   -0.6148 H1        1 <0>        0.02736
     18 H7         -1.8605   -1.4931    1.5321 H1        1 <0>        0.05487
     19 H8         -0.2012   -2.1075    1.5365 H1        1 <0>        0.05487
     20 H9         -1.3649   -0.4234   -0.7654 H1        1 <0>        0.03305
     21 H10         0.3132    0.4066   -2.1020 H2        1 <0>        0.02874
     22 H11        -0.7993   -3.4085   -0.5608 HC        1 <0>        0.04427
     23 H12        -1.2809   -2.5384   -2.0299 HC        1 <0>        0.04427
     24 H13        -2.4034   -2.6572   -0.6611 HC        1 <0>        0.04427
     25 H14         3.0663   -0.3929   -1.0750 HC        1 <0>        0.05450
     26 H15         2.7279    0.8508   -2.2941 HC        1 <0>        0.05450
     27 H16         2.3617   -0.8509   -2.6376 HC        1 <0>        0.05450
@<TRIPOS>BOND
     1    1    2 1
     2    1    3 1
     3    2    9 1
     4    3   10 1
     5    4    5 1
     6    4    9 1
     7    5    7 1
     8    5   11 1
     9    6    8 1
    10    6   10 1
    11    6   11 1
    12    1   12 1
    13    1   13 1
    14    2   14 1
    15    2   15 1
    16    3   16 1
    17    3   17 1
    18    4   18 1
    19    4   19 1
    20    5   20 1
    21    6   21 1
    22    7   22 1
    23    7   23 1
    24    7   24 1
    25    8   25 1
    26    8   26 1
    27    8   27 1
@<TRIPOS>SUBSTRUCTURE
     1 <0>         1 GROUP 0 A     ****
