@<TRIPOS>MOLECULE
AlkEthOH_r17
   21    21     1     0     0
SMALL
USER_CHARGES

@<TRIPOS>ATOM
      1 C1         -0.0519    1.3754   -1.4657 CT        1 <0>       -0.10527
      2 C2          0.7909    0.1139   -1.6276 CT        1 <0>       -0.10996
      3 C3          0.1647   -1.0998    0.5184 CT        1 <0>       -0.17264
      4 C4         -1.2330    1.2227   -0.5176 CT        1 <0>        0.13187
      5 C5          1.2952   -0.5127   -0.3245 CT        1 <0>        0.14803
      6 C6         -0.5717   -0.0812    1.3929 CT        1 <0>        0.33941
      7 O1         -0.7630    1.2074    0.8227 OS        1 <0>       -0.40651
      8 O2          2.1662   -1.5935   -0.6708 OH        1 <0>       -0.59816
      9 O3         -1.7974   -0.6322    1.8723 OH        1 <0>       -0.62232
     10 H1          0.5984    2.1834   -1.1078 HC        1 <0>        0.05437
     11 H2         -0.4219    1.6710   -2.4544 HC        1 <0>        0.05437
     12 H3          0.2192   -0.6347   -2.1927 HC        1 <0>        0.04605
     13 H4          1.6520    0.3503   -2.2667 HC        1 <0>        0.04605
     14 H5         -0.5473   -1.6223   -0.1355 HC        1 <0>        0.06213
     15 H6          0.5445   -1.8980    1.1708 HC        1 <0>        0.06213
     16 H7         -1.8695    2.1089   -0.6145 H1        1 <0>        0.05649
     17 H8         -1.8552    0.3517   -0.7520 H1        1 <0>        0.05649
     18 H9          1.8826    0.2082    0.2545 H1        1 <0>        0.08653
     19 H10         0.0617    0.0977    2.2900 H2        1 <0>        0.06610
     20 H11         1.6338   -2.2156   -1.1877 HO        1 <0>        0.39635
     21 H12        -1.5616   -1.4172    2.3895 HO        1 <0>        0.40849
@<TRIPOS>BOND
     1    1    2 1
     2    1    4 1
     3    2    5 1
     4    3    5 1
     5    3    6 1
     6    4    7 1
     7    5    8 1
     8    6    7 1
     9    6    9 1
    10    1   10 1
    11    1   11 1
    12    2   12 1
    13    2   13 1
    14    3   14 1
    15    3   15 1
    16    4   16 1
    17    4   17 1
    18    5   18 1
    19    6   19 1
    20    8   20 1
    21    9   21 1
@<TRIPOS>SUBSTRUCTURE
     1 <0>         1 GROUP 0 A     ****
