@<TRIPOS>MOLECULE
AlkEthOH_r167
   18    18     1     0     0
SMALL
USER_CHARGES

@<TRIPOS>ATOM
      1 C1         -0.8152    1.3557    0.9950 CT        1 <0>       -0.12209
      2 C2          0.5980    0.8746    1.3257 CT        1 <0>        0.14070
      3 C3         -1.2650    1.0453   -0.4330 CT        1 <0>        0.14070
      4 C4          1.4234   -1.0154    0.1315 CT        1 <0>        0.32812
      5 C5         -0.3037   -0.8570   -1.4992 CT        1 <0>        0.32812
      6 O1          0.6647   -0.5476    1.2462 OS        1 <0>       -0.43712
      7 O2         -1.3265   -0.3652   -0.6338 OS        1 <0>       -0.43712
      8 O3          1.0243   -0.4904   -1.1324 OS        1 <0>       -0.48009
      9 H1         -1.5123    0.8652    1.6859 HC        1 <0>        0.05667
     10 H2         -0.8767    2.4362    1.1650 HC        1 <0>        0.05667
     11 H3          1.3451    1.3615    0.6875 H1        1 <0>        0.04461
     12 H4          0.8284    1.1481    2.3611 H1        1 <0>        0.04461
     13 H5         -2.2798    1.4326   -0.5731 H1        1 <0>        0.04461
     14 H6         -0.6233    1.5418   -1.1706 H1        1 <0>        0.04461
     15 H7          2.4748   -0.7513    0.2893 H2        1 <0>        0.06175
     16 H8          1.3636   -2.1091    0.1097 H2        1 <0>        0.06175
     17 H9         -0.3844   -1.9485   -1.5409 H2        1 <0>        0.06175
     18 H10        -0.4904   -0.4793   -2.5104 H2        1 <0>        0.06175
@<TRIPOS>BOND
     1    1    2 1
     2    1    3 1
     3    2    6 1
     4    3    7 1
     5    4    6 1
     6    4    8 1
     7    5    7 1
     8    5    8 1
     9    1    9 1
    10    1   10 1
    11    2   11 1
    12    2   12 1
    13    3   13 1
    14    3   14 1
    15    4   15 1
    16    4   16 1
    17    5   17 1
    18    5   18 1
@<TRIPOS>SUBSTRUCTURE
     1 <0>         1 GROUP 0 A     ****
