@<TRIPOS>MOLECULE
AlkEthOH_r251
   30    30     1     0     0
SMALL
USER_CHARGES

@<TRIPOS>ATOM
      1 C1         -1.9539    0.7981   -1.5040 CT        1 <0>       -0.12570
      2 C2          0.7523   -0.3776    1.2205 CT        1 <0>       -0.13226
      3 C3         -1.1942    2.0919   -1.1722 CT        1 <0>        0.13249
      4 C4         -1.8911   -0.2664   -0.4079 CT        1 <0>        0.13947
      5 C5          1.0207    1.2769   -0.7630 CT        1 <0>        0.13112
      6 C6          1.6968    0.4965    0.3666 CT        1 <0>        0.14836
      7 C7          0.0085   -1.5260    0.4952 CT        1 <0>        0.16467
      8 C8          1.0245   -2.5291   -0.0757 CT        1 <0>       -0.10553
      9 C9         -0.9016   -2.2807    1.4782 CT        1 <0>       -0.10553
     10 O1         -0.1388    1.9166   -0.2375 OS        1 <0>       -0.41398
     11 O2         -0.7286   -1.0588   -0.6371 OS        1 <0>       -0.42929
     12 O3          2.3053    1.4588    1.2368 OH        1 <0>       -0.59495
     13 H1         -2.9978    1.0626   -1.7099 HC        1 <0>        0.05485
     14 H2         -1.5464    0.3858   -2.4357 HC        1 <0>        0.05485
     15 H3          1.3409   -0.8010    2.0472 HC        1 <0>        0.05677
     16 H4          0.0280    0.2804    1.7181 HC        1 <0>        0.05677
     17 H5         -0.8248    2.5786   -2.0826 H1        1 <0>        0.04509
     18 H6         -1.8979    2.7909   -0.7060 H1        1 <0>        0.04509
     19 H7         -1.9160    0.1914    0.5854 H1        1 <0>        0.03979
     20 H8         -2.7553   -0.9329   -0.4977 H1        1 <0>        0.03979
     21 H9          1.6846    2.0593   -1.1467 H1        1 <0>        0.05198
     22 H10         0.7768    0.6102   -1.5956 H1        1 <0>        0.05198
     23 H11         2.5123   -0.1063   -0.0464 H1        1 <0>        0.03346
     24 H12         0.4935   -3.3291   -0.5814 HC        1 <0>        0.04415
     25 H13         1.6170   -2.9403    0.7354 HC        1 <0>        0.04415
     26 H14         1.6741   -2.0199   -0.7804 HC        1 <0>        0.04415
     27 H15        -1.4132   -3.0802    0.9519 HC        1 <0>        0.04415
     28 H16        -1.6306   -1.5920    1.8930 HC        1 <0>        0.04415
     29 H17        -0.2978   -2.6981    2.2777 HC        1 <0>        0.04415
     30 H18         2.7881    0.9504    1.9037 HO        1 <0>        0.39581
@<TRIPOS>BOND
     1    1    3 1
     2    1    4 1
     3    2    6 1
     4    2    7 1
     5    3   10 1
     6    4   11 1
     7    5    6 1
     8    5   10 1
     9    6   12 1
    10    7    8 1
    11    7    9 1
    12    7   11 1
    13    1   13 1
    14    1   14 1
    15    2   15 1
    16    2   16 1
    17    3   17 1
    18    3   18 1
    19    4   19 1
    20    4   20 1
    21    5   21 1
    22    5   22 1
    23    6   23 1
    24    8   24 1
    25    8   25 1
    26    8   26 1
    27    9   27 1
    28    9   28 1
    29    9   29 1
    30   12   30 1
@<TRIPOS>SUBSTRUCTURE
     1 <0>         1 GROUP 0 A     ****
