@<TRIPOS>MOLECULE
AlkEthOH_r83
   18    18     1     0     0
SMALL
USER_CHARGES

@<TRIPOS>ATOM
      1 C1         -1.0816    1.2312    1.0857 CT        1 <0>       -0.10779
      2 C2         -0.3413    0.1742    1.9067 CT        1 <0>       -0.10779
      3 C3         -0.3721    1.6309   -0.2029 CT        1 <0>        0.14417
      4 C4          0.0673   -1.0598    1.1107 CT        1 <0>        0.14417
      5 C5          0.6647   -0.3333   -1.0883 CT        1 <0>        0.52201
      6 O1         -0.4476    0.5617   -1.1389 OS        1 <0>       -0.46486
      7 O2          1.1164   -0.7173    0.2124 OS        1 <0>       -0.46486
      8 O3          0.3943   -1.4877   -1.8855 OH        1 <0>       -0.61601
      9 H1         -2.0772    0.8411    0.8396 HC        1 <0>        0.05206
     10 H2         -1.2256    2.1204    1.7103 HC        1 <0>        0.05206
     11 H3          0.5567    0.6373    2.3344 HC        1 <0>        0.05206
     12 H4         -0.9808   -0.1297    2.7435 HC        1 <0>        0.05206
     13 H5         -0.9055    2.4778   -0.6472 H1        1 <0>        0.05625
     14 H6          0.6630    1.9487   -0.0310 H1        1 <0>        0.05625
     15 H7          0.4743   -1.8041    1.8033 H1        1 <0>        0.05625
     16 H8         -0.7807   -1.5224    0.5924 H1        1 <0>        0.05625
     17 H9          1.5095    0.1831   -1.5589 H3        1 <0>        0.08791
     18 H10         0.2499   -1.1678   -2.7884 HO        1 <0>        0.42981
@<TRIPOS>BOND
     1    1    2 1
     2    1    3 1
     3    2    4 1
     4    3    6 1
     5    4    7 1
     6    5    6 1
     7    5    7 1
     8    5    8 1
     9    1    9 1
    10    1   10 1
    11    2   11 1
    12    2   12 1
    13    3   13 1
    14    3   14 1
    15    4   15 1
    16    4   16 1
    17    5   17 1
    18    8   18 1
@<TRIPOS>SUBSTRUCTURE
     1 <0>         1 GROUP 0 A     ****
