@<TRIPOS>MOLECULE
AlkEthOH_r539
   26    26     1     0     0
SMALL
USER_CHARGES

@<TRIPOS>ATOM
      1 C1          0.2673    0.9044   -1.3538 CT        1 <0>       -0.10592
      2 C2         -0.5775    1.9507   -0.6382 CT        1 <0>        0.12652
      3 C3         -1.1306    0.4612    1.1246 CT        1 <0>        0.09860
      4 C4          0.8604   -0.1416   -0.3743 CT        1 <0>       -0.03352
      5 C5         -0.2945   -0.6891    0.5324 CT        1 <0>        0.13031
      6 C6          1.9851    0.5199    0.4544 CT        1 <0>       -0.08796
      7 C7          1.5103   -1.2609   -1.2191 CT        1 <0>       -0.08796
      8 C8          0.1826   -1.6099    1.6629 CT        1 <0>       -0.12056
      9 O1         -1.6220    1.3302    0.1032 OS        1 <0>       -0.40513
     10 O2         -1.1811   -1.4650   -0.2923 OH        1 <0>       -0.58956
     11 H1         -0.3726    0.3888   -2.0823 HC        1 <0>        0.05938
     12 H2          1.0618    1.3998   -1.9248 HC        1 <0>        0.05938
     13 H3          0.0222    2.5821    0.0262 H1        1 <0>        0.04562
     14 H4         -1.0442    2.6116   -1.3760 H1        1 <0>        0.04562
     15 H5         -2.0142    0.0609    1.6351 H1        1 <0>        0.04985
     16 H6         -0.5685    1.0498    1.8584 H1        1 <0>        0.04985
     17 H7          2.3957   -0.2138    1.1362 HC        1 <0>        0.03888
     18 H8          1.5685    1.3505    1.0098 HC        1 <0>        0.03888
     19 H9          2.7554    0.8727   -0.2194 HC        1 <0>        0.03888
     20 H10         1.9317   -2.0036   -0.5533 HC        1 <0>        0.03888
     21 H11         2.2902   -0.8290   -1.8336 HC        1 <0>        0.03888
     22 H12         0.7518   -1.7128   -1.8460 HC        1 <0>        0.03888
     23 H13         0.7720   -2.4206    1.2445 HC        1 <0>        0.04424
     24 H14        -0.6784   -2.0190    2.1836 HC        1 <0>        0.04424
     25 H15         0.7914   -1.0410    2.3599 HC        1 <0>        0.04424
     26 H16        -1.8793   -1.7815    0.2960 HO        1 <0>        0.39948
@<TRIPOS>BOND
     1    1    2 1
     2    1    4 1
     3    2    9 1
     4    3    5 1
     5    3    9 1
     6    4    5 1
     7    4    6 1
     8    4    7 1
     9    5    8 1
    10    5   10 1
    11    1   11 1
    12    1   12 1
    13    2   13 1
    14    2   14 1
    15    3   15 1
    16    3   16 1
    17    6   17 1
    18    6   18 1
    19    6   19 1
    20    7   20 1
    21    7   21 1
    22    7   22 1
    23    8   23 1
    24    8   24 1
    25    8   25 1
    26   10   26 1
@<TRIPOS>SUBSTRUCTURE
     1 <0>         1 GROUP 0 A     ****
