@<TRIPOS>MOLECULE
AlkEthOH_r1001
   20    20     1     0     0
SMALL
USER_CHARGES

@<TRIPOS>ATOM
      1 C1         -1.1308    0.2846    1.1915 CT        1 <0>       -0.11053
      2 C2         -0.4161   -0.9918    1.5875 CT        1 <0>        0.13198
      3 C3         -0.8848    0.3273   -0.3047 CT        1 <0>       -0.07095
      4 C4          0.5572   -0.1869   -0.3801 CT        1 <0>        0.33362
      5 C5         -1.1359    1.6976   -0.9133 CT        1 <0>       -0.08029
      6 C6          0.8990   -0.8000   -1.7315 CT        1 <0>       -0.10951
      7 O1          0.6410   -1.2015    0.6383 OS        1 <0>       -0.45690
      8 O2          1.4704    0.8706   -0.0878 OH        1 <0>       -0.61573
      9 H1         -2.1908    0.2722    1.4611 HC        1 <0>        0.06006
     10 H2         -0.6656    1.1435    1.6903 HC        1 <0>        0.06006
     11 H3          0.0014   -0.9401    2.5971 H1        1 <0>        0.04774
     12 H4         -1.0871   -1.8553    1.5319 H1        1 <0>        0.04774
     13 H5         -1.5588   -0.4007   -0.7773 HC        1 <0>        0.05945
     14 H6         -0.4762    2.4381   -0.4580 HC        1 <0>        0.04334
     15 H7         -2.1710    1.9996   -0.7458 HC        1 <0>        0.04334
     16 H8         -0.9468    1.6724   -1.9877 HC        1 <0>        0.04334
     17 H9          1.9320   -1.1490   -1.7328 HC        1 <0>        0.05169
     18 H10         0.7762   -0.0575   -2.5203 HC        1 <0>        0.05169
     19 H11         0.2406   -1.6447   -1.9357 HC        1 <0>        0.05169
     20 H12         2.3594    0.4898   -0.1500 HO        1 <0>        0.41817
@<TRIPOS>BOND
     1    1    2 1
     2    1    3 1
     3    2    7 1
     4    3    4 1
     5    3    5 1
     6    4    6 1
     7    4    7 1
     8    4    8 1
     9    1    9 1
    10    1   10 1
    11    2   11 1
    12    2   12 1
    13    3   13 1
    14    5   14 1
    15    5   15 1
    16    5   16 1
    17    6   17 1
    18    6   18 1
    19    6   19 1
    20    8   20 1
@<TRIPOS>SUBSTRUCTURE
     1 <0>         1 GROUP 0 A     ****
