@<TRIPOS>MOLECULE
AlkEthOH_r664
   22    22     1     0     0
SMALL
USER_CHARGES

@<TRIPOS>ATOM
      1 C1          0.7761    0.9452    1.9931 CT        1 <0>        0.09377
      2 C2          1.3664    1.5535    0.7306 CT        1 <0>        0.10354
      3 C3         -0.8187   -0.6111    1.1656 CT        1 <0>        0.10376
      4 C4          0.4840    0.1200   -0.9365 CT        1 <0>        0.35186
      5 C5         -0.6753   -0.7175   -0.3626 CT        1 <0>        0.11941
      6 C6         -2.0290   -0.3934   -1.0098 CT        1 <0>       -0.11638
      7 O1          0.4375   -0.4314    1.8234 OS        1 <0>       -0.40592
      8 O2          0.4845    1.4351   -0.3839 OS        1 <0>       -0.45159
      9 O3          0.3610    0.1919   -2.3585 OH        1 <0>       -0.59097
     10 O4         -0.3865   -2.0923   -0.6614 OH        1 <0>       -0.58744
     11 H1          1.5209    0.9997    2.7940 H1        1 <0>        0.05672
     12 H2         -0.0992    1.5120    2.3314 H1        1 <0>        0.05672
     13 H3          1.5406    2.6217    0.8971 H1        1 <0>        0.05628
     14 H4          2.3371    1.1040    0.4904 H1        1 <0>        0.05628
     15 H5         -1.5097    0.1920    1.4505 H1        1 <0>        0.05594
     16 H6         -1.2416   -1.5424    1.5610 H1        1 <0>        0.05594
     17 H7          1.4375   -0.3915   -0.7477 H2        1 <0>        0.06443
     18 H8         -1.9397   -0.4655   -2.0898 HC        1 <0>        0.05293
     19 H9         -2.3278    0.6145   -0.7370 HC        1 <0>        0.05293
     20 H10        -2.7754   -1.1005   -0.6595 HC        1 <0>        0.05293
     21 H11         1.1076    0.7249   -2.6698 HO        1 <0>        0.41657
     22 H12        -1.1380   -2.5999   -0.3269 HO        1 <0>        0.40229
@<TRIPOS>BOND
     1    1    2 1
     2    1    7 1
     3    2    8 1
     4    3    5 1
     5    3    7 1
     6    4    5 1
     7    4    8 1
     8    4    9 1
     9    5    6 1
    10    5   10 1
    11    1   11 1
    12    1   12 1
    13    2   13 1
    14    2   14 1
    15    3   15 1
    16    3   16 1
    17    4   17 1
    18    6   18 1
    19    6   19 1
    20    6   20 1
    21    9   21 1
    22   10   22 1
@<TRIPOS>SUBSTRUCTURE
     1 <0>         1 GROUP 0 A     ****
