@<TRIPOS>MOLECULE
AlkEthOH_r1078
   26    26     1     0     0
SMALL
USER_CHARGES

@<TRIPOS>ATOM
      1 C1         -1.1768    0.4600    1.5061 CT        1 <0>       -0.07079
      2 C2         -0.4002    1.7805    1.5815 CT        1 <0>       -0.09749
      3 C3         -1.6203    0.0671    0.0895 CT        1 <0>       -0.10591
      4 C4          0.9229    1.7967    0.8241 CT        1 <0>        0.12850
      5 C5          1.2562    0.4635   -1.1374 CT        1 <0>        0.13380
      6 C6          0.7569   -0.8619   -0.5375 CT        1 <0>       -0.09330
      7 C7         -0.7775   -1.0364   -0.5723 CT        1 <0>        0.15248
      8 C8          1.4495   -2.0253   -1.2660 CT        1 <0>       -0.08965
      9 O1          0.6788    1.6307   -0.5668 OS        1 <0>       -0.42108
     10 O2         -1.0895   -2.2749    0.0790 OH        1 <0>       -0.60808
     11 H1         -0.6062   -0.3430    1.9854 HC        1 <0>        0.04353
     12 H2         -2.0804    0.5897    2.1163 HC        1 <0>        0.04353
     13 H3         -1.0434    2.5798    1.1920 HC        1 <0>        0.04648
     14 H4         -0.2060    2.0126    2.6353 HC        1 <0>        0.04648
     15 H5         -2.6489   -0.3119    0.1677 HC        1 <0>        0.05127
     16 H6         -1.6809    0.9476   -0.5596 HC        1 <0>        0.05127
     17 H7          1.3882    2.7803    0.9516 H1        1 <0>        0.04051
     18 H8          1.6269    1.0600    1.2259 H1        1 <0>        0.04051
     19 H9          2.3473    0.5391   -1.0510 H1        1 <0>        0.04689
     20 H10         1.0226    0.4904   -2.2081 H1        1 <0>        0.04689
     21 H11         1.0787   -0.9347    0.5061 HC        1 <0>        0.06514
     22 H12        -1.1072   -1.1353   -1.6140 H1        1 <0>        0.02905
     23 H13         1.1697   -2.0096   -2.3146 HC        1 <0>        0.04058
     24 H14         1.1383   -2.9643   -0.8196 HC        1 <0>        0.04058
     25 H15         2.5255   -1.9165   -1.1741 HC        1 <0>        0.04058
     26 H16        -2.0373   -2.4163   -0.0536 HO        1 <0>        0.39823
@<TRIPOS>BOND
     1    1    2 1
     2    1    3 1
     3    2    4 1
     4    3    7 1
     5    4    9 1
     6    5    6 1
     7    5    9 1
     8    6    7 1
     9    6    8 1
    10    7   10 1
    11    1   11 1
    12    1   12 1
    13    2   13 1
    14    2   14 1
    15    3   15 1
    16    3   16 1
    17    4   17 1
    18    4   18 1
    19    5   19 1
    20    5   20 1
    21    6   21 1
    22    7   22 1
    23    8   23 1
    24    8   24 1
    25    8   25 1
    26   10   26 1
@<TRIPOS>SUBSTRUCTURE
     1 <0>         1 GROUP 0 A     ****
