@<TRIPOS>MOLECULE
AlkEthOH_r873
   25    25     1     0     0
SMALL
USER_CHARGES

@<TRIPOS>ATOM
      1 C1          0.8604    0.6773   -0.0444 CT        1 <0>       -0.07475
      2 C2          0.8247    1.6283    1.1439 CT        1 <0>       -0.07307
      3 C3          0.8507    1.4313   -1.3696 CT        1 <0>       -0.07421
      4 C4          1.9642    2.6440    1.0821 CT        1 <0>       -0.10238
      5 C5          2.0001    2.4529   -1.4618 CT        1 <0>       -0.04360
      6 C6          2.0114    3.4229   -0.2477 CT        1 <0>        0.15534
      7 C7          1.9146    3.1739   -2.8127 CT        1 <0>       -0.08732
      8 C8          3.2549    4.3212   -0.2511 CT        1 <0>       -0.12429
      9 O1          0.8857    4.3050   -0.3040 OH        1 <0>       -0.59286
     10 H1          1.7601    0.0524    0.0137 HC        1 <0>        0.03780
     11 H2         -0.0005    0.0006    0.0000 HC        1 <0>        0.03780
     12 H3         -0.1380    2.1533    1.1652 HC        1 <0>        0.04305
     13 H4          0.8937    1.0560    2.0760 HC        1 <0>        0.04305
     14 H5          0.9279    0.7082   -2.1907 HC        1 <0>        0.04666
     15 H6         -0.1139    1.9413   -1.4885 HC        1 <0>        0.04666
     16 H7          1.8442    3.3406    1.9215 HC        1 <0>        0.04157
     17 H8          2.9146    2.1160    1.2329 HC        1 <0>        0.04157
     18 H9          2.9410    1.8936   -1.4513 HC        1 <0>        0.04390
     19 H10         0.9902    3.7430   -2.8623 HC        1 <0>        0.03818
     20 H11         1.9324    2.4425   -3.6161 HC        1 <0>        0.03818
     21 H12         2.7604    3.8480   -2.9184 HC        1 <0>        0.03818
     22 H13         3.2992    4.8760   -1.1844 HC        1 <0>        0.04171
     23 H14         4.1461    3.7074   -0.1528 HC        1 <0>        0.04171
     24 H15         3.2017    5.0176    0.5814 HC        1 <0>        0.04171
     25 H16         0.9704    4.8974    0.4563 HO        1 <0>        0.39541
@<TRIPOS>BOND
     1    1    2 1
     2    1    3 1
     3    2    4 1
     4    3    5 1
     5    4    6 1
     6    5    6 1
     7    5    7 1
     8    6    8 1
     9    6    9 1
    10    1   10 1
    11    1   11 1
    12    2   12 1
    13    2   13 1
    14    3   14 1
    15    3   15 1
    16    4   16 1
    17    4   17 1
    18    5   18 1
    19    7   19 1
    20    7   20 1
    21    7   21 1
    22    8   22 1
    23    8   23 1
    24    8   24 1
    25    9   25 1
@<TRIPOS>SUBSTRUCTURE
     1 <0>         1 GROUP 0 A     ****
