@<TRIPOS>MOLECULE
AlkEthOH_r350
   32    32     1     0     0
SMALL
USER_CHARGES

@<TRIPOS>ATOM
      1 C1         -0.9724    1.6153   -1.2152 CT        1 <0>       -0.07627
      2 C2          0.4423    2.1168   -0.9338 CT        1 <0>       -0.06319
      3 C3         -1.8715    1.4049    0.0026 CT        1 <0>       -0.06209
      4 C4          1.3049    1.3169    0.0454 CT        1 <0>       -0.09701
      5 C5         -1.4359    0.3792    1.0537 CT        1 <0>       -0.11701
      6 C6          1.4008   -0.2096   -0.1732 CT        1 <0>        0.17523
      7 C7         -0.8880   -0.9654    0.5494 CT        1 <0>        0.35906
      8 C8          2.1641   -0.8526    0.9943 CT        1 <0>       -0.09869
      9 C9          2.2121   -0.4737   -1.4574 CT        1 <0>       -0.09869
     10 C10        -2.0139   -1.7472   -0.1452 CT        1 <0>       -0.11913
     11 O1          0.1539   -0.8629   -0.4195 OS        1 <0>       -0.41347
     12 O2         -0.4964   -1.7216    1.6989 OH        1 <0>       -0.62500
     13 H1         -1.4604    2.3615   -1.8569 HC        1 <0>        0.04709
     14 H2         -0.9391    0.7095   -1.8292 HC        1 <0>        0.04709
     15 H3          0.9720    2.1882   -1.8920 HC        1 <0>        0.03433
     16 H4          0.3770    3.1464   -0.5585 HC        1 <0>        0.03433
     17 H5         -2.0186    2.3691    0.5056 HC        1 <0>        0.03433
     18 H6         -2.8631    1.1129   -0.3670 HC        1 <0>        0.03433
     19 H7          2.3193    1.7404    0.0113 HC        1 <0>        0.04242
     20 H8          0.9747    1.5382    1.0632 HC        1 <0>        0.04242
     21 H9         -0.7224    0.8357    1.7448 HC        1 <0>        0.04841
     22 H10        -2.2990    0.1818    1.7065 HC        1 <0>        0.04841
     23 H11         2.2286   -1.9249    0.8358 HC        1 <0>        0.04421
     24 H12         1.6370   -0.6536    1.9226 HC        1 <0>        0.04421
     25 H13         3.1639   -0.4320    1.0465 HC        1 <0>        0.04421
     26 H14         2.2839   -1.5433   -1.6178 HC        1 <0>        0.04421
     27 H15         3.2038   -0.0514   -1.3434 HC        1 <0>        0.04421
     28 H16         1.7083   -0.0087   -2.2970 HC        1 <0>        0.04421
     29 H17        -1.6260   -2.6968   -0.5010 HC        1 <0>        0.05136
     30 H18        -2.3881   -1.1695   -0.9847 HC        1 <0>        0.05136
     31 H19        -2.8181   -1.9246    0.5622 HC        1 <0>        0.05136
     32 H20        -1.2949   -1.8323    2.2352 HO        1 <0>        0.40376
@<TRIPOS>BOND
     1    1    2 1
     2    1    3 1
     3    2    4 1
     4    3    5 1
     5    4    6 1
     6    5    7 1
     7    6    8 1
     8    6    9 1
     9    6   11 1
    10    7   10 1
    11    7   11 1
    12    7   12 1
    13    1   13 1
    14    1   14 1
    15    2   15 1
    16    2   16 1
    17    3   17 1
    18    3   18 1
    19    4   19 1
    20    4   20 1
    21    5   21 1
    22    5   22 1
    23    8   23 1
    24    8   24 1
    25    8   25 1
    26    9   26 1
    27    9   27 1
    28    9   28 1
    29   10   29 1
    30   10   30 1
    31   10   31 1
    32   12   32 1
@<TRIPOS>SUBSTRUCTURE
     1 <0>         1 GROUP 0 A     ****
