@<TRIPOS>MOLECULE
AlkEthOH_r840
   19    19     1     0     0
SMALL
USER_CHARGES

@<TRIPOS>ATOM
      1 C1          1.0341   -0.3399    0.1179 CT        1 <0>       -0.07552
      2 C2          1.1483   -1.8621   -0.0214 CT        1 <0>       -0.11241
      3 C3          3.0506   -0.8028   -1.0856 CT        1 <0>       -0.07721
      4 C4          1.9450    0.2445   -0.9612 CT        1 <0>       -0.06963
      5 C5          2.2828   -2.1171   -1.0139 CT        1 <0>        0.13693
      6 C6          2.4686    1.6287   -0.6177 CT        1 <0>       -0.08539
      7 O1          1.7207   -2.4203   -2.2871 OH        1 <0>       -0.60175
      8 H1         -0.0002   -0.0003    0.0000 HC        1 <0>        0.04222
      9 H2          1.3646   -0.0395    1.1199 HC        1 <0>        0.04222
     10 H3          1.3893   -2.2928    0.9571 HC        1 <0>        0.04630
     11 H4          0.2005   -2.2962   -0.3574 HC        1 <0>        0.04630
     12 H5          3.6064   -0.6851   -2.0211 HC        1 <0>        0.05667
     13 H6          3.7505   -0.7279   -0.2448 HC        1 <0>        0.05667
     14 H7          1.3900    0.3006   -1.9068 HC        1 <0>        0.05611
     15 H8          2.9132   -2.9587   -0.7120 H1        1 <0>        0.03731
     16 H9          3.0254    1.5994    0.3207 HC        1 <0>        0.03437
     17 H10         1.6390    2.3300   -0.5108 HC        1 <0>        0.03437
     18 H11         3.1315    1.9879   -1.4071 HC        1 <0>        0.03437
     19 H12         1.1751   -3.2133   -2.1673 HO        1 <0>        0.39807
@<TRIPOS>BOND
     1    1    2 1
     2    1    4 1
     3    2    5 1
     4    3    4 1
     5    3    5 1
     6    4    6 1
     7    5    7 1
     8    1    8 1
     9    1    9 1
    10    2   10 1
    11    2   11 1
    12    3   12 1
    13    3   13 1
    14    4   14 1
    15    5   15 1
    16    6   16 1
    17    6   17 1
    18    6   18 1
    19    7   19 1
@<TRIPOS>SUBSTRUCTURE
     1 <0>         1 GROUP 0 A     ****
