@<TRIPOS>MOLECULE
AlkEthOH_r642
   32    32     1     0     0
SMALL
USER_CHARGES

@<TRIPOS>ATOM
      1 C1         -0.4070   -2.0560   -1.7245 CT        1 <0>       -0.13050
      2 C2          1.0096   -1.5321   -1.9465 CT        1 <0>        0.13406
      3 C3         -0.8909   -1.8522   -0.2944 CT        1 <0>        0.13537
      4 C4          1.5450    0.1393   -0.3100 CT        1 <0>        0.13626
      5 C5          0.5461    1.0726    0.4342 CT        1 <0>       -0.07829
      6 C6         -0.7269    0.2742    0.9590 CT        1 <0>        0.16861
      7 C7          1.3134    1.7373    1.6012 CT        1 <0>       -0.08439
      8 C8          0.1342    2.2006   -0.5470 CT        1 <0>       -0.08439
      9 C9         -1.8784    1.2320    1.3505 CT        1 <0>       -0.10542
     10 C10        -0.4427   -0.5664    2.2256 CT        1 <0>       -0.10542
     11 O1          1.0948   -0.1494   -1.6348 OS        1 <0>       -0.40772
     12 O2         -1.2972   -0.4999   -0.1134 OS        1 <0>       -0.41761
     13 H1         -1.0876   -1.5352   -2.4091 HC        1 <0>        0.05944
     14 H2         -0.4266   -3.1233   -1.9714 HC        1 <0>        0.05944
     15 H3          1.7515   -2.1191   -1.3922 H1        1 <0>        0.04015
     16 H4          1.2541   -1.6383   -3.0091 H1        1 <0>        0.04015
     17 H5         -1.7811   -2.4689   -0.1300 H1        1 <0>        0.03474
     18 H6         -0.1260   -2.1931    0.4054 H1        1 <0>        0.03474
     19 H7          2.5078    0.6511   -0.4301 H1        1 <0>        0.03630
     20 H8          1.7516   -0.7651    0.2725 H1        1 <0>        0.03630
     21 H9          0.6379    2.3930    2.1353 HC        1 <0>        0.03913
     22 H10         2.1409    2.3057    1.1968 HC        1 <0>        0.03913
     23 H11         1.6816    0.9639    2.2630 HC        1 <0>        0.03913
     24 H12        -0.5608    2.8589   -0.0448 HC        1 <0>        0.03913
     25 H13        -0.3333    1.7521   -1.4125 HC        1 <0>        0.03913
     26 H14         1.0211    2.7449   -0.8399 HC        1 <0>        0.03913
     27 H15        -2.7170    0.6442    1.6993 HC        1 <0>        0.04390
     28 H16        -2.1634    1.8081    0.4803 HC        1 <0>        0.04390
     29 H17        -1.5320    1.8901    2.1363 HC        1 <0>        0.04390
     30 H18        -1.3516   -1.0761    2.5184 HC        1 <0>        0.04390
     31 H19        -0.1157    0.0946    3.0180 HC        1 <0>        0.04390
     32 H20         0.3319   -1.2880    2.0001 HC        1 <0>        0.04390
@<TRIPOS>BOND
     1    1    2 1
     2    1    3 1
     3    2   11 1
     4    3   12 1
     5    4    5 1
     6    4   11 1
     7    5    6 1
     8    5    7 1
     9    5    8 1
    10    6    9 1
    11    6   10 1
    12    6   12 1
    13    1   13 1
    14    1   14 1
    15    2   15 1
    16    2   16 1
    17    3   17 1
    18    3   18 1
    19    4   19 1
    20    4   20 1
    21    7   21 1
    22    7   22 1
    23    7   23 1
    24    8   24 1
    25    8   25 1
    26    8   26 1
    27    9   27 1
    28    9   28 1
    29    9   29 1
    30   10   30 1
    31   10   31 1
    32   10   32 1
@<TRIPOS>SUBSTRUCTURE
     1 <0>         1 GROUP 0 A     ****
