@<TRIPOS>MOLECULE
AlkEthOH_r353
   27    27     1     0     0
SMALL
USER_CHARGES

@<TRIPOS>ATOM
      1 C1          2.1550   -0.1423   -0.4143 CT        1 <0>       -0.07846
      2 C2          1.8393   -1.3388    0.4881 CT        1 <0>       -0.06854
      3 C3          1.3770   -0.1046   -1.7332 CT        1 <0>       -0.06815
      4 C4          0.9128   -1.0211    1.6672 CT        1 <0>       -0.12637
      5 C5         -0.1424   -0.2753   -1.6601 CT        1 <0>       -0.11661
      6 C6         -0.4988   -0.5826    1.2810 CT        1 <0>        0.34462
      7 C7         -0.9059    0.6899   -0.7313 CT        1 <0>        0.35113
      8 C8         -0.7549    2.1363   -1.2075 CT        1 <0>       -0.11650
      9 O1         -0.4267    0.6719    0.6141 OS        1 <0>       -0.39752
     10 O2         -1.2474   -0.4405    2.4882 OH        1 <0>       -0.59253
     11 O3         -2.3082    0.4071   -0.7922 OH        1 <0>       -0.62094
     12 H1          2.0370    0.8021    0.1290 HC        1 <0>        0.04822
     13 H2          3.2199   -0.1897   -0.6784 HC        1 <0>        0.04822
     14 H3          1.4427   -2.1793   -0.0925 HC        1 <0>        0.03822
     15 H4          2.7869   -1.6904    0.9171 HC        1 <0>        0.03822
     16 H5          1.6135    0.8346   -2.2477 HC        1 <0>        0.03732
     17 H6          1.7672   -0.9001   -2.3819 HC        1 <0>        0.03732
     18 H7          0.8473   -1.9074    2.3110 HC        1 <0>        0.05424
     19 H8          1.3788   -0.2401    2.2830 HC        1 <0>        0.05424
     20 H9         -0.5498   -0.1818   -2.6765 HC        1 <0>        0.05188
     21 H10        -0.3646   -1.3127   -1.3831 HC        1 <0>        0.05188
     22 H11        -0.9874   -1.3624    0.6870 H2        1 <0>        0.05150
     23 H12        -1.3000    2.7987   -0.5396 HC        1 <0>        0.05552
     24 H13        -1.1538    2.2320   -2.2143 HC        1 <0>        0.05552
     25 H14         0.2969    2.4116   -1.2088 HC        1 <0>        0.05552
     26 H15        -1.2433   -1.3096    2.9168 HO        1 <0>        0.40098
     27 H16        -2.5680    0.5348   -1.7155 HO        1 <0>        0.41107
@<TRIPOS>BOND
     1    1    2 1
     2    1    3 1
     3    2    4 1
     4    3    5 1
     5    4    6 1
     6    5    7 1
     7    6    9 1
     8    6   10 1
     9    7    8 1
    10    7    9 1
    11    7   11 1
    12    1   12 1
    13    1   13 1
    14    2   14 1
    15    2   15 1
    16    3   16 1
    17    3   17 1
    18    4   18 1
    19    4   19 1
    20    5   20 1
    21    5   21 1
    22    6   22 1
    23    8   23 1
    24    8   24 1
    25    8   25 1
    26   10   26 1
    27   11   27 1
@<TRIPOS>SUBSTRUCTURE
     1 <0>         1 GROUP 0 A     ****
