@<TRIPOS>MOLECULE
AlkEthOH_r90
   24    24     1     0     0
SMALL
USER_CHARGES

@<TRIPOS>ATOM
      1 C1         -0.6064   -1.7525    1.0720 CT        1 <0>       -0.10189
      2 C2          0.5565   -2.3163    0.2416 CT        1 <0>       -0.10189
      3 C3         -0.1967   -0.6425    2.0467 CT        1 <0>        0.13334
      4 C4          0.6957   -1.7178   -1.1600 CT        1 <0>        0.13334
      5 C5         -0.5899    1.3513    0.7979 CT        1 <0>        0.10150
      6 C6         -0.0523    0.5196   -1.5272 CT        1 <0>        0.10150
      7 C7         -0.1283    1.7388   -0.6085 CT        1 <0>        0.10966
      8 O1          0.3710    0.4862    1.3944 OS        1 <0>       -0.39723
      9 O2          1.0015   -0.3321   -1.0894 OS        1 <0>       -0.39723
     10 O3         -1.0511    2.6653   -1.1675 OH        1 <0>       -0.58788
     11 H1         -1.4095   -1.4128    0.4102 HC        1 <0>        0.04635
     12 H2         -1.0231   -2.5704    1.6732 HC        1 <0>        0.04635
     13 H3          1.4974   -2.1899    0.7905 HC        1 <0>        0.04635
     14 H4          0.4008   -3.3956    0.1217 HC        1 <0>        0.04635
     15 H5         -1.0492   -0.3321    2.6630 H1        1 <0>        0.04310
     16 H6          0.5637   -1.0317    2.7330 H1        1 <0>        0.04310
     17 H7          1.5397   -2.2046   -1.6609 H1        1 <0>        0.04310
     18 H8         -0.1929   -1.9220   -1.7690 H1        1 <0>        0.04310
     19 H9         -0.6750    2.2479    1.4227 H1        1 <0>        0.03753
     20 H10        -1.5919    0.9056    0.7588 H1        1 <0>        0.03753
     21 H11        -1.0258    0.0141   -1.5457 H1        1 <0>        0.03753
     22 H12         0.1631    0.8285   -2.5563 H1        1 <0>        0.03753
     23 H13         0.8597    2.2109   -0.5494 H1        1 <0>        0.10668
     24 H14        -1.9124    2.2187   -1.1964 HO        1 <0>        0.39218
@<TRIPOS>BOND
     1    1    2 1
     2    1    3 1
     3    2    4 1
     4    3    8 1
     5    4    9 1
     6    5    7 1
     7    5    8 1
     8    6    7 1
     9    6    9 1
    10    7   10 1
    11    1   11 1
    12    1   12 1
    13    2   13 1
    14    2   14 1
    15    3   15 1
    16    3   16 1
    17    4   17 1
    18    4   18 1
    19    5   19 1
    20    5   20 1
    21    6   21 1
    22    6   22 1
    23    7   23 1
    24   10   24 1
@<TRIPOS>SUBSTRUCTURE
     1 <0>         1 GROUP 0 A     ****
