@<TRIPOS>MOLECULE
AlkEthOH_r885
   30    30     1     0     0
SMALL
USER_CHARGES

@<TRIPOS>ATOM
      1 C1         -2.4218   -0.0834    0.5267 CT        1 <0>       -0.07496
      2 C2         -1.8887   -1.3247   -0.1777 CT        1 <0>       -0.07473
      3 C3         -1.6421    1.2009    0.2574 CT        1 <0>       -0.07269
      4 C4         -0.4059   -1.6274    0.0485 CT        1 <0>       -0.07119
      5 C5         -0.2742    1.2050    0.9395 CT        1 <0>       -0.06865
      6 C6          0.5258   -0.6552   -0.7078 CT        1 <0>       -0.05174
      7 C7          0.9069    0.6300    0.1082 CT        1 <0>       -0.04450
      8 C8          1.7503   -1.4364   -1.2184 CT        1 <0>       -0.09064
      9 C9          2.0642    0.3648    1.0994 CT        1 <0>       -0.08757
     10 C10         1.3855    1.7264   -0.8757 CT        1 <0>       -0.08757
     11 H1         -3.4610    0.0673    0.2085 HC        1 <0>        0.03608
     12 H2         -2.4612   -0.2700    1.6073 HC        1 <0>        0.03608
     13 H3         -2.4734   -2.1851    0.1718 HC        1 <0>        0.03602
     14 H4         -2.0866   -1.2444   -1.2540 HC        1 <0>        0.03602
     15 H5         -1.5649    1.3959   -0.8172 HC        1 <0>        0.03872
     16 H6         -2.2274    2.0286    0.6786 HC        1 <0>        0.03872
     17 H7         -0.1750   -1.6547    1.1191 HC        1 <0>        0.04039
     18 H8         -0.2401   -2.6482   -0.3206 HC        1 <0>        0.04039
     19 H9         -0.0366    2.2429    1.2118 HC        1 <0>        0.03783
     20 H10        -0.3516    0.6747    1.8982 HC        1 <0>        0.03783
     21 H11        -0.0047   -0.3286   -1.6134 HC        1 <0>        0.04679
     22 H12         2.3256   -1.7921   -0.3705 HC        1 <0>        0.03285
     23 H13         2.3631   -0.7807   -1.8275 HC        1 <0>        0.03285
     24 H14         1.4135   -2.2793   -1.8122 HC        1 <0>        0.03285
     25 H15         2.9073   -0.0379    0.5530 HC        1 <0>        0.03347
     26 H16         1.7306   -0.3459    1.8444 HC        1 <0>        0.03347
     27 H17         2.3399    1.2982    1.5731 HC        1 <0>        0.03347
     28 H18         2.2080    1.3349   -1.4589 HC        1 <0>        0.03347
     29 H19         1.7083    2.5874   -0.3061 HC        1 <0>        0.03347
     30 H20         0.5623    1.9947   -1.5241 HC        1 <0>        0.03347
@<TRIPOS>BOND
     1    1    2 1
     2    1    3 1
     3    2    4 1
     4    3    5 1
     5    4    6 1
     6    5    7 1
     7    6    7 1
     8    6    8 1
     9    7    9 1
    10    7   10 1
    11    1   11 1
    12    1   12 1
    13    2   13 1
    14    2   14 1
    15    3   15 1
    16    3   16 1
    17    4   17 1
    18    4   18 1
    19    5   19 1
    20    5   20 1
    21    6   21 1
    22    8   22 1
    23    8   23 1
    24    8   24 1
    25    9   25 1
    26    9   26 1
    27    9   27 1
    28   10   28 1
    29   10   29 1
    30   10   30 1
@<TRIPOS>SUBSTRUCTURE
     1 <0>         1 GROUP 0 A     ****
