@<TRIPOS>MOLECULE
AlkEthOH_r224
   32    32     1     0     0
SMALL
USER_CHARGES

@<TRIPOS>ATOM
      1 C1          2.2804    0.4329   -0.5689 CT        1 <0>       -0.07287
      2 C2          2.2941   -0.8314    0.2880 CT        1 <0>       -0.06511
      3 C3          1.7859    1.7050    0.1296 CT        1 <0>       -0.09614
      4 C4          0.9820   -1.2924    0.9251 CT        1 <0>       -0.07482
      5 C5         -0.9419   -0.6715   -0.7699 CT        1 <0>       -0.13582
      6 C6          0.3229    2.0315   -0.1627 CT        1 <0>        0.13304
      7 C7         -0.1451   -1.7473   -0.0129 CT        1 <0>        0.15668
      8 C8         -1.5494    0.4799    0.0641 CT        1 <0>        0.16481
      9 C9         -2.4727    1.3484   -0.8107 CT        1 <0>       -0.10534
     10 C10        -2.4003   -0.0733    1.2200 CT        1 <0>       -0.10534
     11 O1         -0.5320    1.2752    0.6836 OS        1 <0>       -0.42305
     12 O2          0.3762   -2.6569   -0.9853 OH        1 <0>       -0.60144
     13 H1          3.3237    0.6118   -0.8645 HC        1 <0>        0.03673
     14 H2          1.7485    0.2601   -1.5087 HC        1 <0>        0.03673
     15 H3          2.7078   -1.6493   -0.3155 HC        1 <0>        0.04357
     16 H4          3.0168   -0.6774    1.1006 HC        1 <0>        0.04357
     17 H5          1.9648    1.6456    1.2091 HC        1 <0>        0.04954
     18 H6          2.3853    2.5408   -0.2531 HC        1 <0>        0.04954
     19 H7          1.2507   -2.1733    1.5269 HC        1 <0>        0.05658
     20 H8          0.6297   -0.5600    1.6554 HC        1 <0>        0.05658
     21 H9         -0.3228   -0.2731   -1.5793 HC        1 <0>        0.04905
     22 H10        -1.7588   -1.1868   -1.2964 HC        1 <0>        0.04905
     23 H11         0.1443    3.0847    0.0808 H1        1 <0>        0.03630
     24 H12         0.1096    1.9085   -1.2282 H1        1 <0>        0.03630
     25 H13        -0.8583   -2.3247    0.5878 H1        1 <0>        0.02315
     26 H14        -2.8870    2.1482   -0.2067 HC        1 <0>        0.04411
     27 H15        -3.2744    0.7325   -1.2032 HC        1 <0>        0.04411
     28 H16        -1.8975    1.7672   -1.6292 HC        1 <0>        0.04411
     29 H17        -2.8139    0.7536    1.7880 HC        1 <0>        0.04411
     30 H18        -1.7757   -0.6829    1.8647 HC        1 <0>        0.04411
     31 H19        -3.2058   -0.6770    0.8146 HC        1 <0>        0.04411
     32 H20        -0.3705   -2.9108   -1.5473 HO        1 <0>        0.39405
@<TRIPOS>BOND
     1    1    2 1
     2    1    3 1
     3    2    4 1
     4    3    6 1
     5    4    7 1
     6    5    7 1
     7    5    8 1
     8    6   11 1
     9    7   12 1
    10    8    9 1
    11    8   10 1
    12    8   11 1
    13    1   13 1
    14    1   14 1
    15    2   15 1
    16    2   16 1
    17    3   17 1
    18    3   18 1
    19    4   19 1
    20    4   20 1
    21    5   21 1
    22    5   22 1
    23    6   23 1
    24    6   24 1
    25    7   25 1
    26    9   26 1
    27    9   27 1
    28    9   28 1
    29   10   29 1
    30   10   30 1
    31   10   31 1
    32   12   32 1
@<TRIPOS>SUBSTRUCTURE
     1 <0>         1 GROUP 0 A     ****
