@<TRIPOS>MOLECULE
AlkEthOH_r481
   29    29     1     0     0
SMALL
USER_CHARGES

@<TRIPOS>ATOM
      1 C1         -1.5449    1.3846    0.2708 CT        1 <0>       -0.11127
      2 C2         -0.0576    1.6993    0.0670 CT        1 <0>       -0.06776
      3 C3          0.6412   -0.7342    0.7397 CT        1 <0>       -0.10149
      4 C4         -2.1771    0.5629   -0.8541 CT        1 <0>        0.13074
      5 C5         -0.4612   -0.9286   -1.5954 CT        1 <0>        0.13061
      6 C6          0.6198   -1.4130   -0.6357 CT        1 <0>        0.12529
      7 C7          0.9553    0.7819    0.8050 CT        1 <0>       -0.04426
      8 C8          0.9845    1.1804    2.3011 CT        1 <0>       -0.09015
      9 C9          2.3600    1.0541    0.2277 CT        1 <0>       -0.09015
     10 O1         -1.7008   -0.7762   -0.9081 OS        1 <0>       -0.40981
     11 O2          0.3809   -2.8111   -0.4180 OH        1 <0>       -0.60084
     12 H1         -1.7114    0.8900    1.2330 HC        1 <0>        0.05001
     13 H2         -2.0859    2.3385    0.3137 HC        1 <0>        0.05001
     14 H3          0.1699    1.7512   -1.0033 HC        1 <0>        0.03836
     15 H4          0.1078    2.7271    0.4216 HC        1 <0>        0.03836
     16 H5         -0.3018   -0.9473    1.2610 HC        1 <0>        0.05357
     17 H6          1.3901   -1.2671    1.3453 HC        1 <0>        0.05357
     18 H7         -3.2533    0.4974   -0.6584 H1        1 <0>        0.04476
     19 H8         -2.0694    1.0556   -1.8279 H1        1 <0>        0.04476
     20 H9         -0.1556   -0.0131   -2.1093 H1        1 <0>        0.05441
     21 H10        -0.6299   -1.6797   -2.3756 H1        1 <0>        0.05441
     22 H11         1.5981   -1.3420   -1.1219 H1        1 <0>        0.03442
     23 H12         1.6895    0.5426    2.8173 HC        1 <0>        0.03562
     24 H13        -0.0068    1.0520    2.7147 HC        1 <0>        0.03562
     25 H14         1.2905    2.2150    2.3796 HC        1 <0>        0.03562
     26 H15         3.0790    0.4205    0.7333 HC        1 <0>        0.03562
     27 H16         2.6113    2.0962    0.3860 HC        1 <0>        0.03562
     28 H17         2.3551    0.8328   -0.8331 HC        1 <0>        0.03562
     29 H18         1.1124   -3.1240    0.1315 HO        1 <0>        0.39873
@<TRIPOS>BOND
     1    1    2 1
     2    1    4 1
     3    2    7 1
     4    3    6 1
     5    3    7 1
     6    4   10 1
     7    5    6 1
     8    5   10 1
     9    6   11 1
    10    7    8 1
    11    7    9 1
    12    1   12 1
    13    1   13 1
    14    2   14 1
    15    2   15 1
    16    3   16 1
    17    3   17 1
    18    4   18 1
    19    4   19 1
    20    5   20 1
    21    5   21 1
    22    6   22 1
    23    8   23 1
    24    8   24 1
    25    8   25 1
    26    9   26 1
    27    9   27 1
    28    9   28 1
    29   11   29 1
@<TRIPOS>SUBSTRUCTURE
     1 <0>         1 GROUP 0 A     ****
