@<TRIPOS>MOLECULE
AlkEthOH_r501
   23    23     1     0     0
SMALL
USER_CHARGES

@<TRIPOS>ATOM
      1 C1         -1.6176   -0.2288    0.7622 CT        1 <0>       -0.10945
      2 C2         -0.5162    0.8154    0.9576 CT        1 <0>       -0.10498
      3 C3         -2.0734   -0.3258   -0.6917 CT        1 <0>        0.12911
      4 C4          0.1168   -0.2264   -1.6293 CT        1 <0>        0.31941
      5 C5          0.9087    0.3417    0.5932 CT        1 <0>        0.15214
      6 C6          1.5036   -0.4683    1.7565 CT        1 <0>       -0.10160
      7 C7          1.8163    1.5541    0.3375 CT        1 <0>       -0.10160
      8 O1         -1.1147   -0.9351   -1.5453 OS        1 <0>       -0.43102
      9 O2          0.9765   -0.5267   -0.5407 OS        1 <0>       -0.43137
     10 H1         -1.2879   -1.2083    1.1244 HC        1 <0>        0.05789
     11 H2         -2.4819    0.0706    1.3669 HC        1 <0>        0.05789
     12 H3         -0.7771    1.7052    0.3693 HC        1 <0>        0.04547
     13 H4         -0.5246    1.1505    2.0032 HC        1 <0>        0.04547
     14 H5         -2.9731   -0.9490   -0.7369 H1        1 <0>        0.04484
     15 H6         -2.3489    0.6568   -1.0929 H1        1 <0>        0.04484
     16 H7          0.6193   -0.5971   -2.5279 H2        1 <0>        0.06038
     17 H8         -0.0381    0.8492   -1.7753 H2        1 <0>        0.06038
     18 H9          2.5036   -0.7964    1.4911 HC        1 <0>        0.04370
     19 H10         0.8760   -1.3324    1.9502 HC        1 <0>        0.04370
     20 H11         1.5480    0.1562    2.6431 HC        1 <0>        0.04370
     21 H12         2.8141    1.2100    0.0825 HC        1 <0>        0.04370
     22 H13         1.8609    2.1662    1.2333 HC        1 <0>        0.04370
     23 H14         1.4129    2.1397   -0.4832 HC        1 <0>        0.04370
@<TRIPOS>BOND
     1    1    2 1
     2    1    3 1
     3    2    5 1
     4    3    8 1
     5    4    8 1
     6    4    9 1
     7    5    6 1
     8    5    7 1
     9    5    9 1
    10    1   10 1
    11    1   11 1
    12    2   12 1
    13    2   13 1
    14    3   14 1
    15    3   15 1
    16    4   16 1
    17    4   17 1
    18    6   18 1
    19    6   19 1
    20    6   20 1
    21    7   21 1
    22    7   22 1
    23    7   23 1
@<TRIPOS>SUBSTRUCTURE
     1 <0>         1 GROUP 0 A     ****
