@<TRIPOS>MOLECULE
AlkEthOH_r532
   24    24     1     0     0
SMALL
USER_CHARGES

@<TRIPOS>ATOM
      1 C1          0.2261    1.4865    0.8932 CT        1 <0>       -0.13204
      2 C2          0.8605   -0.6737   -0.3846 CT        1 <0>       -0.05998
      3 C3         -1.1997    1.4671    0.3535 CT        1 <0>        0.12984
      4 C4         -1.3547   -0.0117   -1.5237 CT        1 <0>        0.09702
      5 C5         -0.5463   -1.1007   -0.8181 CT        1 <0>        0.11094
      6 C6          0.9177    0.1121    0.9407 CT        1 <0>        0.15312
      7 C7          2.3837    0.2979    1.3581 CT        1 <0>       -0.12506
      8 O1         -1.1556    1.3118   -1.0572 OS        1 <0>       -0.41184
      9 O2         -0.4209   -2.2074   -1.7157 OH        1 <0>       -0.59772
     10 O3          0.2891   -0.6819    1.9539 OH        1 <0>       -0.60195
     11 H1          0.8252    2.1687    0.2763 HC        1 <0>        0.05545
     12 H2          0.1918    1.9001    1.9095 HC        1 <0>        0.05545
     13 H3          1.4576   -1.5895   -0.2689 HC        1 <0>        0.06816
     14 H4          1.3453   -0.1067   -1.1899 HC        1 <0>        0.06816
     15 H5         -1.8357    0.7173    0.8372 H1        1 <0>        0.05150
     16 H6         -1.6542    2.4453    0.5448 H1        1 <0>        0.05150
     17 H7         -1.1183   -0.0070   -2.5946 H1        1 <0>        0.04926
     18 H8         -2.4240   -0.2500   -1.4642 H1        1 <0>        0.04926
     19 H9         -1.1036   -1.4703    0.0491 H1        1 <0>        0.05739
     20 H10         2.8747   -0.6702    1.3926 HC        1 <0>        0.04472
     21 H11         2.4236    0.7602    2.3400 HC        1 <0>        0.04472
     22 H12         2.8867    0.9346    0.6362 HC        1 <0>        0.04472
     23 H13        -1.3221   -2.4532   -1.9707 HO        1 <0>        0.39860
     24 H14         0.4039   -0.1985    2.7844 HO        1 <0>        0.39878
@<TRIPOS>BOND
     1    1    3 1
     2    1    6 1
     3    2    5 1
     4    2    6 1
     5    3    8 1
     6    4    5 1
     7    4    8 1
     8    5    9 1
     9    6    7 1
    10    6   10 1
    11    1   11 1
    12    1   12 1
    13    2   13 1
    14    2   14 1
    15    3   15 1
    16    3   16 1
    17    4   17 1
    18    4   18 1
    19    5   19 1
    20    7   20 1
    21    7   21 1
    22    7   22 1
    23    9   23 1
    24   10   24 1
@<TRIPOS>SUBSTRUCTURE
     1 <0>         1 GROUP 0 A     ****
