@<TRIPOS>MOLECULE
AlkEthOH_r483
   32    32     1     0     0
SMALL
USER_CHARGES

@<TRIPOS>ATOM
      1 C1          2.0548    0.6599    0.6295 CT        1 <0>       -0.10825
      2 C2          1.7665   -0.5007   -0.3284 CT        1 <0>       -0.09813
      3 C3          1.5576    2.0100    0.1176 CT        1 <0>        0.13345
      4 C4         -0.5917    1.4525   -0.7845 CT        1 <0>        0.10832
      5 C5          0.5322   -1.3676    0.0141 CT        1 <0>        0.16289
      6 C6         -1.3834    0.3005   -0.1518 CT        1 <0>        0.14353
      7 C7          0.9156   -2.3211    1.1694 CT        1 <0>       -0.10271
      8 C8          0.1723   -2.2526   -1.1856 CT        1 <0>       -0.10271
      9 C9         -2.2958   -0.3601   -1.1930 CT        1 <0>       -0.10164
     10 C10        -2.3009    0.8689    0.9535 CT        1 <0>       -0.10164
     11 O1          0.1478    2.1546    0.2105 OS        1 <0>       -0.41028
     12 O2         -0.5751   -0.6444    0.5487 OS        1 <0>       -0.41553
     13 H1          1.6423    0.4621    1.6243 HC        1 <0>        0.05754
     14 H2          3.1435    0.7359    0.7433 HC        1 <0>        0.05754
     15 H3          1.7028   -0.1244   -1.3554 HC        1 <0>        0.04035
     16 H4          2.6495   -1.1556   -0.3432 HC        1 <0>        0.04035
     17 H5          1.9867    2.7925    0.7534 H1        1 <0>        0.04268
     18 H6          1.9003    2.2159   -0.9034 H1        1 <0>        0.04268
     19 H7          0.0405    1.1198   -1.6121 H1        1 <0>        0.04559
     20 H8         -1.2915    2.1774   -1.2183 H1        1 <0>        0.04559
     21 H9          0.0580   -2.9332    1.4175 HC        1 <0>        0.04255
     22 H10         1.2110   -1.7307    2.0273 HC        1 <0>        0.04255
     23 H11         1.7383   -2.9472    0.8483 HC        1 <0>        0.04255
     24 H12        -0.6950   -2.8599   -0.9411 HC        1 <0>        0.04255
     25 H13         1.0118   -2.9002   -1.4233 HC        1 <0>        0.04255
     26 H14        -0.0553   -1.6256   -2.0434 HC        1 <0>        0.04255
     27 H15        -2.8478   -1.1723   -0.7280 HC        1 <0>        0.04418
     28 H16        -1.6923   -0.7522   -2.0070 HC        1 <0>        0.04418
     29 H17        -2.9941    0.3759   -1.5821 HC        1 <0>        0.04418
     30 H18        -2.8594    0.0554    1.3996 HC        1 <0>        0.04418
     31 H19        -2.9811    1.5862    0.5114 HC        1 <0>        0.04418
     32 H20        -1.6885    1.3531    1.7041 HC        1 <0>        0.04418
@<TRIPOS>BOND
     1    1    2 1
     2    1    3 1
     3    2    5 1
     4    3   11 1
     5    4    6 1
     6    4   11 1
     7    5    7 1
     8    5    8 1
     9    5   12 1
    10    6    9 1
    11    6   10 1
    12    6   12 1
    13    1   13 1
    14    1   14 1
    15    2   15 1
    16    2   16 1
    17    3   17 1
    18    3   18 1
    19    4   19 1
    20    4   20 1
    21    7   21 1
    22    7   22 1
    23    7   23 1
    24    8   24 1
    25    8   25 1
    26    8   26 1
    27    9   27 1
    28    9   28 1
    29    9   29 1
    30   10   30 1
    31   10   31 1
    32   10   32 1
@<TRIPOS>SUBSTRUCTURE
     1 <0>         1 GROUP 0 A     ****
