@<TRIPOS>MOLECULE
AlkEthOH_r974
   29    29     1     0     0
SMALL
USER_CHARGES

@<TRIPOS>ATOM
      1 C1          0.9043    1.8086   -0.9938 CT        1 <0>       -0.10959
      2 C2         -0.3794    2.0739   -0.2044 CT        1 <0>       -0.08479
      3 C3          2.0557    1.2085   -0.1844 CT        1 <0>        0.13150
      4 C4          1.2948   -1.0578   -0.3638 CT        1 <0>        0.10615
      5 C5         -0.9639    0.8603    0.5284 CT        1 <0>        0.14015
      6 C6         -0.1907   -1.3837   -0.1027 CT        1 <0>        0.13803
      7 C7         -2.3806    1.1654    1.0089 CT        1 <0>       -0.10350
      8 C8         -0.6315   -2.4458   -1.1245 CT        1 <0>       -0.10179
      9 C9         -0.4126   -1.9616    1.3048 CT        1 <0>       -0.10179
     10 O1          1.7504   -0.0106    0.4875 OS        1 <0>       -0.42211
     11 O2         -1.0464   -0.2572   -0.3561 OS        1 <0>       -0.42086
     12 H1          0.6621    1.1617   -1.8443 HC        1 <0>        0.05061
     13 H2          1.2460    2.7558   -1.4291 HC        1 <0>        0.05061
     14 H3         -0.2036    2.8809    0.5178 HC        1 <0>        0.04351
     15 H4         -1.1196    2.4540   -0.9209 HC        1 <0>        0.04351
     16 H5          2.9225    1.0422   -0.8347 H1        1 <0>        0.04415
     17 H6          2.3679    1.9243    0.5839 H1        1 <0>        0.04415
     18 H7          1.9067   -1.9392   -0.1380 H1        1 <0>        0.04819
     19 H8          1.4745   -0.8181   -1.4183 H1        1 <0>        0.04819
     20 H9         -0.3597    0.6509    1.4144 H1        1 <0>        0.06508
     21 H10        -3.0218    1.3812    0.1557 HC        1 <0>        0.04030
     22 H11        -2.3678    2.0287    1.6724 HC        1 <0>        0.04030
     23 H12        -2.7808    0.3078    1.5476 HC        1 <0>        0.04030
     24 H13        -1.6756   -2.6905   -0.9587 HC        1 <0>        0.04495
     25 H14        -0.0236   -3.3360   -1.0004 HC        1 <0>        0.04495
     26 H15        -0.5032   -2.0525   -2.1276 HC        1 <0>        0.04495
     27 H16        -1.4678   -2.1748    1.4429 HC        1 <0>        0.04495
     28 H17        -0.0869   -1.2380    2.0452 HC        1 <0>        0.04495
     29 H18         0.1614   -2.8765    1.4115 HC        1 <0>        0.04495
@<TRIPOS>BOND
     1    1    2 1
     2    1    3 1
     3    2    5 1
     4    3   10 1
     5    4    6 1
     6    4   10 1
     7    5    7 1
     8    5   11 1
     9    6    8 1
    10    6    9 1
    11    6   11 1
    12    1   12 1
    13    1   13 1
    14    2   14 1
    15    2   15 1
    16    3   16 1
    17    3   17 1
    18    4   18 1
    19    4   19 1
    20    5   20 1
    21    7   21 1
    22    7   22 1
    23    7   23 1
    24    8   24 1
    25    8   25 1
    26    8   26 1
    27    9   27 1
    28    9   28 1
    29    9   29 1
@<TRIPOS>SUBSTRUCTURE
     1 <0>         1 GROUP 0 A     ****
