@<TRIPOS>MOLECULE
AlkEthOH_r684
   24    24     1     0     0
SMALL
USER_CHARGES

@<TRIPOS>ATOM
      1 C1          0.5109    1.4106   -0.8877 CT        1 <0>       -0.16896
      2 C2          0.1893    1.7641    0.5563 CT        1 <0>        0.13826
      3 C3          0.7212   -0.0995   -1.0372 CT        1 <0>        0.35443
      4 C4         -0.7864   -0.3968    0.8391 CT        1 <0>        0.35356
      5 C5          0.7969   -0.4739   -2.5179 CT        1 <0>       -0.11216
      6 C6         -2.1874   -0.9864    1.0369 CT        1 <0>       -0.10582
      7 C7          0.1310   -0.9794    1.9199 CT        1 <0>       -0.10582
      8 O1         -0.9429    1.0192    0.9914 OS        1 <0>       -0.43870
      9 O2         -0.3916   -0.8035   -0.4782 OS        1 <0>       -0.42741
     10 O3          1.9589   -0.4544   -0.4225 OH        1 <0>       -0.61656
     11 H1         -0.3426    1.7171   -1.5058 HC        1 <0>        0.06238
     12 H2          1.3953    1.9683   -1.2153 HC        1 <0>        0.06238
     13 H3          1.0401    1.5851    1.2214 H1        1 <0>        0.05524
     14 H4         -0.0618    2.8269    0.6330 H1        1 <0>        0.05524
     15 H5          0.9462   -1.5470   -2.6182 HC        1 <0>        0.05363
     16 H6          1.6283    0.0487   -2.9867 HC        1 <0>        0.05363
     17 H7         -0.1292   -0.1930   -3.0155 HC        1 <0>        0.05363
     18 H8         -2.8594   -0.5884    0.2810 HC        1 <0>        0.05431
     19 H9         -2.5571   -0.7217    2.0241 HC        1 <0>        0.05431
     20 H10        -2.1424   -2.0686    0.9463 HC        1 <0>        0.05431
     21 H11         1.1335   -0.5763    1.8020 HC        1 <0>        0.05431
     22 H12         0.1636   -2.0616    1.8245 HC        1 <0>        0.05431
     23 H13        -0.2512   -0.7149    2.9025 HC        1 <0>        0.05431
     24 H14         2.6487    0.0442   -0.8863 HO        1 <0>        0.40719
@<TRIPOS>BOND
     1    1    2 1
     2    1    3 1
     3    2    8 1
     4    3    5 1
     5    3    9 1
     6    3   10 1
     7    4    6 1
     8    4    7 1
     9    4    8 1
    10    4    9 1
    11    1   11 1
    12    1   12 1
    13    2   13 1
    14    2   14 1
    15    5   15 1
    16    5   16 1
    17    5   17 1
    18    6   18 1
    19    6   19 1
    20    6   20 1
    21    7   21 1
    22    7   22 1
    23    7   23 1
    24   10   24 1
@<TRIPOS>SUBSTRUCTURE
     1 <0>         1 GROUP 0 A     ****
