@<TRIPOS>MOLECULE
AlkEthOH_r453
   29    29     1     0     0
SMALL
USER_CHARGES

@<TRIPOS>ATOM
      1 C1         -0.3359    0.9869    1.4847 CT        1 <0>       -0.06973
      2 C2         -0.1083   -0.1669    2.4716 CT        1 <0>       -0.08415
      3 C3         -1.2842    0.6433    0.3247 CT        1 <0>       -0.06547
      4 C4          0.4740   -1.4374    1.8514 CT        1 <0>        0.13359
      5 C5          0.6126    0.1908   -1.3619 CT        1 <0>        0.13957
      6 C6          1.5661   -1.6851   -0.2464 CT        1 <0>        0.32166
      7 C7         -0.7277    0.9214   -1.1023 CT        1 <0>       -0.05835
      8 C8         -0.5251    2.4322   -1.3165 CT        1 <0>       -0.08824
      9 C9         -1.7770    0.4251   -2.1201 CT        1 <0>       -0.08824
     10 O1          1.6158   -1.1140    1.0618 OS        1 <0>       -0.45062
     11 O2          0.4897   -1.1963   -1.0471 OS        1 <0>       -0.45020
     12 H1         -0.7674    1.8262    2.0454 HC        1 <0>        0.04285
     13 H2          0.6342    1.3466    1.1294 HC        1 <0>        0.04285
     14 H3          0.5871    0.1942    3.2399 HC        1 <0>        0.04324
     15 H4         -1.0461   -0.4121    2.9838 HC        1 <0>        0.04324
     16 H5         -1.6109   -0.4007    0.3915 HC        1 <0>        0.04258
     17 H6         -2.2034    1.2309    0.4593 HC        1 <0>        0.04258
     18 H7          0.7994   -2.1153    2.6480 H1        1 <0>        0.03949
     19 H8         -0.2906   -1.9694    1.2740 H1        1 <0>        0.03949
     20 H9          0.8868    0.2627   -2.4212 H1        1 <0>        0.04123
     21 H10         1.4287    0.6601   -0.7997 H1        1 <0>        0.04123
     22 H11         2.5172   -1.4807   -0.7504 H2        1 <0>        0.06198
     23 H12         1.4676   -2.7732   -0.1625 H2        1 <0>        0.06198
     24 H13        -0.1375    2.6025   -2.3152 HC        1 <0>        0.03624
     25 H14         0.1802    2.8055   -0.5817 HC        1 <0>        0.03624
     26 H15        -1.4768    2.9399   -1.2016 HC        1 <0>        0.03624
     27 H16        -1.4102    0.6088   -3.1227 HC        1 <0>        0.03624
     28 H17        -2.7039    0.9629   -1.9615 HC        1 <0>        0.03624
     29 H18        -1.9359   -0.6364   -1.9735 HC        1 <0>        0.03624
@<TRIPOS>BOND
     1    1    2 1
     2    1    3 1
     3    2    4 1
     4    3    7 1
     5    4   10 1
     6    5    7 1
     7    5   11 1
     8    6   10 1
     9    6   11 1
    10    7    8 1
    11    7    9 1
    12    1   12 1
    13    1   13 1
    14    2   14 1
    15    2   15 1
    16    3   16 1
    17    3   17 1
    18    4   18 1
    19    4   19 1
    20    5   20 1
    21    5   21 1
    22    6   22 1
    23    6   23 1
    24    8   24 1
    25    8   25 1
    26    8   26 1
    27    9   27 1
    28    9   28 1
    29    9   29 1
@<TRIPOS>SUBSTRUCTURE
     1 <0>         1 GROUP 0 A     ****
