@<TRIPOS>MOLECULE
AlkEthOH_r414
   20    20     1     0     0
SMALL
USER_CHARGES

@<TRIPOS>ATOM
      1 C1         -1.5627   -0.7066   -0.6001 CT        1 <0>       -0.07396
      2 C2         -0.5354   -0.9641   -1.6947 CT        1 <0>       -0.11182
      3 C3         -1.1949    0.5505    0.1850 CT        1 <0>       -0.12821
      4 C4          0.8731   -0.9620   -1.1194 CT        1 <0>        0.13544
      5 C5          0.2587    0.4977    0.6775 CT        1 <0>        0.34339
      6 C6          0.6516    1.8421    1.2900 CT        1 <0>       -0.11172
      7 O1          1.1449    0.2534   -0.4226 OS        1 <0>       -0.40623
      8 O2          0.3648   -0.5111    1.6842 OH        1 <0>       -0.61643
      9 H1         -2.5603   -0.5957   -1.0393 HC        1 <0>        0.04614
     10 H2         -1.6039   -1.5684    0.0768 HC        1 <0>        0.04614
     11 H3         -0.7417   -1.9161   -2.1949 HC        1 <0>        0.04932
     12 H4         -0.6177   -0.1698   -2.4467 HC        1 <0>        0.04932
     13 H5         -1.3311    1.4162   -0.4759 HC        1 <0>        0.05190
     14 H6         -1.8860    0.6595    1.0291 HC        1 <0>        0.05190
     15 H7          1.0304   -1.8142   -0.4483 H1        1 <0>        0.05598
     16 H8          1.6037   -1.0485   -1.9301 H1        1 <0>        0.05598
     17 H9          1.6820    1.8007    1.6378 HC        1 <0>        0.05199
     18 H10        -0.0011    2.0677    2.1312 HC        1 <0>        0.05199
     19 H11         0.5573    2.6280    0.5431 HC        1 <0>        0.05199
     20 H12        -0.2396   -0.2511    2.3951 HO        1 <0>        0.40689
@<TRIPOS>BOND
     1    1    2 1
     2    1    3 1
     3    2    4 1
     4    3    5 1
     5    4    7 1
     6    5    6 1
     7    5    7 1
     8    5    8 1
     9    1    9 1
    10    1   10 1
    11    2   11 1
    12    2   12 1
    13    3   13 1
    14    3   14 1
    15    4   15 1
    16    4   16 1
    17    6   17 1
    18    6   18 1
    19    6   19 1
    20    8   20 1
@<TRIPOS>SUBSTRUCTURE
     1 <0>         1 GROUP 0 A     ****
