@<TRIPOS>MOLECULE
AlkEthOH_r218
   24    24     1     0     0
SMALL
USER_CHARGES

@<TRIPOS>ATOM
      1 C1         -0.0965    0.6157   -0.8986 CT        1 <0>       -0.07999
      2 C2          0.2701   -0.6230    0.8575 CT        1 <0>       -0.07991
      3 C3         -0.1716   -0.9043   -0.6019 CT        1 <0>       -0.07267
      4 C4          0.1889    0.9035    0.5980 CT        1 <0>       -0.07267
      5 C5          0.8416   -1.7273   -1.3950 CT        1 <0>       -0.07736
      6 C6         -1.5787   -1.4867   -0.7187 CT        1 <0>       -0.07736
      7 C7          1.5112    1.6304    0.8344 CT        1 <0>       -0.07736
      8 C8         -0.9650    1.5918    1.3243 CT        1 <0>       -0.07736
      9 H1          0.7134    0.9064   -1.5789 HC        1 <0>        0.05044
     10 H2         -1.0194    1.0598   -1.2893 HC        1 <0>        0.05044
     11 H3         -0.4100   -1.0003    1.6301 HC        1 <0>        0.05044
     12 H4          1.2741   -0.9881    1.1065 HC        1 <0>        0.05044
     13 H5          0.7386   -2.7815   -1.1432 HC        1 <0>        0.03441
     14 H6          1.8518   -1.4002   -1.1545 HC        1 <0>        0.03441
     15 H7          0.6687   -1.5968   -2.4620 HC        1 <0>        0.03441
     16 H8         -1.5563   -2.5527   -0.4981 HC        1 <0>        0.03441
     17 H9         -1.9563   -1.3395   -1.7291 HC        1 <0>        0.03441
     18 H10        -2.2432   -0.9903   -0.0134 HC        1 <0>        0.03441
     19 H11         1.6524    1.8022    1.9002 HC        1 <0>        0.03441
     20 H12         1.5035    2.5881    0.3167 HC        1 <0>        0.03441
     21 H13         2.3361    1.0278    0.4578 HC        1 <0>        0.03441
     22 H14        -0.6964    1.7623    2.3655 HC        1 <0>        0.03441
     23 H15        -1.8536    0.9640    1.2833 HC        1 <0>        0.03441
     24 H16        -1.1814    2.5478    0.8504 HC        1 <0>        0.03441
@<TRIPOS>BOND
     1    1    3 1
     2    1    4 1
     3    2    3 1
     4    2    4 1
     5    3    5 1
     6    3    6 1
     7    4    7 1
     8    4    8 1
     9    1    9 1
    10    1   10 1
    11    2   11 1
    12    2   12 1
    13    5   13 1
    14    5   14 1
    15    5   15 1
    16    6   16 1
    17    6   17 1
    18    6   18 1
    19    7   19 1
    20    7   20 1
    21    7   21 1
    22    8   22 1
    23    8   23 1
    24    8   24 1
@<TRIPOS>SUBSTRUCTURE
     1 <0>         1 GROUP 0 A     ****
