@<TRIPOS>MOLECULE
AlkEthOH_r617
   25    25     1     0     0
SMALL
USER_CHARGES

@<TRIPOS>ATOM
      1 C1         -2.0314    0.8521   -0.3937 CT        1 <0>       -0.10703
      2 C2         -1.9883   -0.6621   -0.1848 CT        1 <0>       -0.11950
      3 C3         -1.1719    1.3727   -1.5467 CT        1 <0>        0.12786
      4 C4          0.8853    1.4330   -0.3092 CT        1 <0>        0.07337
      5 C5         -0.5981   -1.2547    0.0486 CT        1 <0>        0.34141
      6 C6          1.2459    0.2252    0.5752 CT        1 <0>        0.33201
      7 C7          1.9422    0.7320    1.8405 CT        1 <0>       -0.11405
      8 O1          0.2031    1.0049   -1.4866 OS        1 <0>       -0.41769
      9 O2          0.0930   -0.4921    1.0342 OS        1 <0>       -0.39252
     10 O3         -0.7762   -2.5962    0.5056 OH        1 <0>       -0.59264
     11 O4          2.1966   -0.6147   -0.0833 OH        1 <0>       -0.60236
     12 H1         -3.0715    1.1491   -0.5763 HC        1 <0>        0.05317
     13 H2         -1.7417    1.3433    0.5422 HC        1 <0>        0.05317
     14 H3         -2.6239   -0.8956    0.6801 HC        1 <0>        0.05256
     15 H4         -2.4567   -1.1726   -1.0357 HC        1 <0>        0.05256
     16 H5         -1.5631    0.9811   -2.4920 H1        1 <0>        0.04836
     17 H6         -1.2419    2.4654   -1.6029 H1        1 <0>        0.04836
     18 H7          0.3007    2.1800    0.2396 H1        1 <0>        0.05508
     19 H8          1.8052    1.9207   -0.6517 H1        1 <0>        0.05508
     20 H9         -0.0540   -1.3178   -0.8991 H2        1 <0>        0.07537
     21 H10         2.2027   -0.1113    2.4748 HC        1 <0>        0.05461
     22 H11         1.2743    1.3975    2.3812 HC        1 <0>        0.05461
     23 H12         2.8457    1.2709    1.5673 HC        1 <0>        0.05461
     24 H13        -1.2550   -3.0623   -0.1960 HO        1 <0>        0.40172
     25 H14         2.9781   -0.0659   -0.2437 HO        1 <0>        0.41188
@<TRIPOS>BOND
     1    1    2 1
     2    1    3 1
     3    2    5 1
     4    3    8 1
     5    4    6 1
     6    4    8 1
     7    5    9 1
     8    5   10 1
     9    6    7 1
    10    6    9 1
    11    6   11 1
    12    1   12 1
    13    1   13 1
    14    2   14 1
    15    2   15 1
    16    3   16 1
    17    3   17 1
    18    4   18 1
    19    4   19 1
    20    5   20 1
    21    7   21 1
    22    7   22 1
    23    7   23 1
    24   10   24 1
    25   11   25 1
@<TRIPOS>SUBSTRUCTURE
     1 <0>         1 GROUP 0 A     ****
