@<TRIPOS>MOLECULE
AlkEthOH_r628
   27    27     1     0     0
SMALL
USER_CHARGES

@<TRIPOS>ATOM
      1 C1         -0.0457    0.6590   -2.3730 CT        1 <0>       -0.06273
      2 C2         -0.9327   -0.5279   -1.9805 CT        1 <0>       -0.11515
      3 C3          0.7201    1.3769   -1.2558 CT        1 <0>       -0.11573
      4 C4         -2.0614   -0.1875   -1.0084 CT        1 <0>        0.13741
      5 C5          1.7438    0.5138   -0.5206 CT        1 <0>        0.16073
      6 C6         -1.0229   -0.7033    1.0950 CT        1 <0>        0.08487
      7 C7          0.4567   -0.3795    1.3553 CT        1 <0>        0.33569
      8 C8          1.0045   -1.3672    2.3903 CT        1 <0>       -0.11901
      9 O1         -1.6073    0.2891    0.2520 OS        1 <0>       -0.42314
     10 O2          1.1993   -0.6125    0.1518 OS        1 <0>       -0.43928
     11 O3          0.5457    0.9391    1.8939 OH        1 <0>       -0.60897
     12 H1          0.6780    0.3093   -3.1204 HC        1 <0>        0.03359
     13 H2         -0.6715    1.4019   -2.8840 HC        1 <0>        0.03359
     14 H3         -1.3888   -0.9215   -2.8979 HC        1 <0>        0.05514
     15 H4         -0.3155   -1.3398   -1.5860 HC        1 <0>        0.05514
     16 H5          1.2621    2.2148   -1.7133 HC        1 <0>        0.05895
     17 H6          0.0195    1.8336   -0.5527 HC        1 <0>        0.05895
     18 H7         -2.6817    0.6037   -1.4435 H1        1 <0>        0.04447
     19 H8         -2.7163   -1.0542   -0.8592 H1        1 <0>        0.04447
     20 H9          2.4586    0.1220   -1.2532 H1        1 <0>        0.05073
     21 H10         2.3308    1.1192    0.1794 H1        1 <0>        0.05073
     22 H11        -1.1420   -1.7078    0.6713 H1        1 <0>        0.05380
     23 H12        -1.5814   -0.6626    2.0369 H1        1 <0>        0.05380
     24 H13         2.0518   -1.1489    2.5838 HC        1 <0>        0.05030
     25 H14         0.9121   -2.3817    2.0104 HC        1 <0>        0.05030
     26 H15         0.4405   -1.2759    3.3153 HC        1 <0>        0.05030
     27 H16         0.0351    0.9339    2.7177 HO        1 <0>        0.42105
@<TRIPOS>BOND
     1    1    2 1
     2    1    3 1
     3    2    4 1
     4    3    5 1
     5    4    9 1
     6    5   10 1
     7    6    7 1
     8    6    9 1
     9    7    8 1
    10    7   10 1
    11    7   11 1
    12    1   12 1
    13    1   13 1
    14    2   14 1
    15    2   15 1
    16    3   16 1
    17    3   17 1
    18    4   18 1
    19    4   19 1
    20    5   20 1
    21    5   21 1
    22    6   22 1
    23    6   23 1
    24    8   24 1
    25    8   25 1
    26    8   26 1
    27   11   27 1
@<TRIPOS>SUBSTRUCTURE
     1 <0>         1 GROUP 0 A     ****
