@<TRIPOS>MOLECULE
AlkEthOH_r1056
   13    13     1     0     0
SMALL
USER_CHARGES

@<TRIPOS>ATOM
      1 C1         -0.7745    0.0445   -0.8309 CT        1 <0>        0.11297
      2 C2          0.1437   -0.7677    0.8260 CT        1 <0>        0.11297
      3 C3          0.0951    0.6603    0.2710 CT        1 <0>       -0.12487
      4 C4         -0.5580    1.7083    1.1464 CT        1 <0>       -0.08706
      5 O1         -0.8770   -1.2039   -0.1042 OS        1 <0>       -0.42648
      6 H1         -1.7519    0.5150   -0.9693 H1        1 <0>        0.05546
      7 H2         -0.2949   -0.1058   -1.8031 H1        1 <0>        0.05546
      8 H3          1.0771   -1.3179    0.6722 H1        1 <0>        0.05546
      9 H4         -0.1815   -0.8754    1.8646 H1        1 <0>        0.05546
     10 H5          1.0699    0.9966   -0.1041 HC        1 <0>        0.06619
     11 H6         -1.5268    1.3542    1.5094 HC        1 <0>        0.04148
     12 H7         -0.7164    2.6323    0.5837 HC        1 <0>        0.04148
     13 H8          0.0738    1.9332    2.0102 HC        1 <0>        0.04148
@<TRIPOS>BOND
     1    1    3 1
     2    1    5 1
     3    2    3 1
     4    2    5 1
     5    3    4 1
     6    1    6 1
     7    1    7 1
     8    2    8 1
     9    2    9 1
    10    3   10 1
    11    4   11 1
    12    4   12 1
    13    4   13 1
@<TRIPOS>SUBSTRUCTURE
     1 <0>         1 GROUP 0 A     ****
