@<TRIPOS>MOLECULE
AlkEthOH_r783
   29    29     1     0     0
SMALL
USER_CHARGES

@<TRIPOS>ATOM
      1 C1          1.6240    0.9198    1.0357 CT        1 <0>       -0.06784
      2 C2          1.6941   -0.4837    1.6468 CT        1 <0>       -0.09664
      3 C3          1.6832    0.9995   -0.4907 CT        1 <0>       -0.10098
      4 C4         -0.7706    0.5983   -1.2736 CT        1 <0>       -0.09523
      5 C5          0.3290   -1.0931    1.9626 CT        1 <0>        0.12775
      6 C6         -1.5660   -1.0915    0.5009 CT        1 <0>        0.13570
      7 C7         -1.5575    0.3715    0.0309 CT        1 <0>       -0.09468
      8 C8          0.7052    0.1760   -1.3330 CT        1 <0>        0.13100
      9 C9         -3.0037    0.8474   -0.1588 CT        1 <0>       -0.09335
     10 O1         -0.2670   -1.6001    0.7768 OS        1 <0>       -0.42241
     11 O2          1.1296    0.3560   -2.6977 OH        1 <0>       -0.60452
     12 H1          0.7709    1.4798    1.4270 HC        1 <0>        0.03533
     13 H2          2.5023    1.4716    1.3996 HC        1 <0>        0.03533
     14 H3          2.2751   -1.1498    0.9988 HC        1 <0>        0.05323
     15 H4          2.2377   -0.4013    2.5966 HC        1 <0>        0.05323
     16 H5          1.5988    2.0552   -0.7832 HC        1 <0>        0.04307
     17 H6          2.7012    0.7170   -0.7960 HC        1 <0>        0.04307
     18 H7         -1.3004    0.0801   -2.0860 HC        1 <0>        0.04425
     19 H8         -0.8320    1.6620   -1.5439 HC        1 <0>        0.04425
     20 H9          0.4741   -1.9506    2.6289 H1        1 <0>        0.03877
     21 H10        -0.3144   -0.3815    2.4930 H1        1 <0>        0.03877
     22 H11        -2.1997   -1.2205    1.3872 H1        1 <0>        0.04745
     23 H12        -1.9928   -1.7242   -0.2860 H1        1 <0>        0.04745
     24 H13        -1.1264    1.0008    0.8107 HC        1 <0>        0.05190
     25 H14         0.8329   -0.8896   -1.1352 H1        1 <0>        0.10643
     26 H15        -3.4833    0.2505   -0.9295 HC        1 <0>        0.03644
     27 H16        -3.0050    1.8921   -0.4568 HC        1 <0>        0.03644
     28 H17        -3.5469    0.7366    0.7756 HC        1 <0>        0.03644
     29 H18         1.0692    1.3047   -2.8667 HO        1 <0>        0.38935
@<TRIPOS>BOND
     1    1    2 1
     2    1    3 1
     3    2    5 1
     4    3    8 1
     5    4    7 1
     6    4    8 1
     7    5   10 1
     8    6    7 1
     9    6   10 1
    10    7    9 1
    11    8   11 1
    12    1   12 1
    13    1   13 1
    14    2   14 1
    15    2   15 1
    16    3   16 1
    17    3   17 1
    18    4   18 1
    19    4   19 1
    20    5   20 1
    21    5   21 1
    22    6   22 1
    23    6   23 1
    24    7   24 1
    25    8   25 1
    26    9   26 1
    27    9   27 1
    28    9   28 1
    29   11   29 1
@<TRIPOS>SUBSTRUCTURE
     1 <0>         1 GROUP 0 A     ****
