@<TRIPOS>MOLECULE
AlkEthOH_r772
   19    19     1     0     0
SMALL
USER_CHARGES

@<TRIPOS>ATOM
      1 C1         -0.7543    0.5420   -0.6016 CT        1 <0>       -0.09881
      2 C2          0.9730   -0.5016    0.1273 CT        1 <0>       -0.09881
      3 C3          0.7693    0.7855   -0.7056 CT        1 <0>       -0.08019
      4 C4         -0.4880   -0.3583    0.6373 CT        1 <0>        0.12506
      5 C5          1.3589    0.7868   -2.1015 CT        1 <0>       -0.08413
      6 C6         -0.6247    0.3396    1.9848 CT        1 <0>       -0.11523
      7 O1         -1.2342   -1.5939    0.6593 OH        1 <0>       -0.58061
      8 H1         -1.3545    1.4398   -0.4247 HC        1 <0>        0.05870
      9 H2         -1.1869    0.0005   -1.4516 HC        1 <0>        0.05870
     10 H3          1.1416   -1.4068   -0.4685 HC        1 <0>        0.05870
     11 H4          1.7565   -0.4398    0.8889 HC        1 <0>        0.05870
     12 H5          1.0801    1.6840   -0.1547 HC        1 <0>        0.05669
     13 H6          1.0484   -0.1076   -2.6473 HC        1 <0>        0.03633
     14 H7          2.4506    0.8028   -2.0540 HC        1 <0>        0.03633
     15 H8          1.0226    1.6663   -2.6563 HC        1 <0>        0.03633
     16 H9         -0.4213   -0.3646    2.7915 HC        1 <0>        0.04375
     17 H10        -1.6359    0.7291    2.1018 HC        1 <0>        0.04375
     18 H11         0.0829    1.1662    2.0498 HC        1 <0>        0.04375
     19 H12        -0.9702   -2.0402    1.4728 HO        1 <0>        0.40099
@<TRIPOS>BOND
     1    1    3 1
     2    1    4 1
     3    2    3 1
     4    2    4 1
     5    3    5 1
     6    4    6 1
     7    4    7 1
     8    1    8 1
     9    1    9 1
    10    2   10 1
    11    2   11 1
    12    3   12 1
    13    5   13 1
    14    5   14 1
    15    5   15 1
    16    6   16 1
    17    6   17 1
    18    6   18 1
    19    7   19 1
@<TRIPOS>SUBSTRUCTURE
     1 <0>         1 GROUP 0 A     ****
