@<TRIPOS>MOLECULE
AlkEthOH_r971
   29    29     1     0     0
SMALL
USER_CHARGES

@<TRIPOS>ATOM
      1 C1          0.3195   -0.7140   -2.1096 CT        1 <0>       -0.10959
      2 C2          0.0337   -1.6687   -0.9450 CT        1 <0>       -0.07055
      3 C3          0.8902    0.0488    0.8340 CT        1 <0>       -0.09702
      4 C4         -0.6786    0.4363   -2.2526 CT        1 <0>        0.12935
      5 C5         -1.3665    0.9819   -0.0298 CT        1 <0>        0.13906
      6 C6          0.8239   -1.4120    0.3534 CT        1 <0>       -0.05460
      7 C7         -0.4328    0.7651    1.1685 CT        1 <0>        0.13438
      8 C8          2.2570   -1.9515    0.2096 CT        1 <0>       -0.09263
      9 C9         -1.1851    0.0765    2.3105 CT        1 <0>       -0.12276
     10 O1         -0.6184    1.3699   -1.1807 OS        1 <0>       -0.40433
     11 O2         -0.0428    2.0678    1.6418 OH        1 <0>       -0.59318
     12 H1          1.3371   -0.3154   -2.0406 HC        1 <0>        0.05004
     13 H2          0.2748   -1.2951   -3.0394 HC        1 <0>        0.05004
     14 H3         -1.0393   -1.7034   -0.7308 HC        1 <0>        0.03633
     15 H4          0.2721   -2.6864   -1.2841 HC        1 <0>        0.03633
     16 H5          1.5138    0.0770    1.7406 HC        1 <0>        0.05334
     17 H6          1.4606    0.6540    0.1164 HC        1 <0>        0.05334
     18 H7         -0.4213    0.9939   -3.1603 H1        1 <0>        0.04412
     19 H8         -1.7024    0.0695   -2.3957 H1        1 <0>        0.04412
     20 H9         -1.9948    0.1072   -0.2241 H1        1 <0>        0.05338
     21 H10        -2.0543    1.8099    0.1800 H1        1 <0>        0.05338
     22 H11         0.3518   -2.0130    1.1413 HC        1 <0>        0.04170
     23 H12         2.7753   -1.3907   -0.5613 HC        1 <0>        0.03467
     24 H13         2.2190   -3.0006   -0.0654 HC        1 <0>        0.03467
     25 H14         2.7782   -1.8404    1.1549 HC        1 <0>        0.03467
     26 H15        -2.1095    0.6118    2.5139 HC        1 <0>        0.04258
     27 H16        -0.5670    0.0732    3.2052 HC        1 <0>        0.04258
     28 H17        -1.4170   -0.9481    2.0295 HC        1 <0>        0.04258
     29 H18         0.5113    1.9095    2.4167 HO        1 <0>        0.39400
@<TRIPOS>BOND
     1    1    2 1
     2    1    4 1
     3    2    6 1
     4    3    6 1
     5    3    7 1
     6    4   10 1
     7    5    7 1
     8    5   10 1
     9    6    8 1
    10    7    9 1
    11    7   11 1
    12    1   12 1
    13    1   13 1
    14    2   14 1
    15    2   15 1
    16    3   16 1
    17    3   17 1
    18    4   18 1
    19    4   19 1
    20    5   20 1
    21    5   21 1
    22    6   22 1
    23    8   23 1
    24    8   24 1
    25    8   25 1
    26    9   26 1
    27    9   27 1
    28    9   28 1
    29   11   29 1
@<TRIPOS>SUBSTRUCTURE
     1 <0>         1 GROUP 0 A     ****
