@<TRIPOS>MOLECULE
AlkEthOH_r759
   24    24     1     0     0
SMALL
USER_CHARGES

@<TRIPOS>ATOM
      1 C1         -1.3746    0.2346   -1.6649 CT        1 <0>       -0.15134
      2 C2         -1.0505   -1.2601   -1.6901 CT        1 <0>        0.13749
      3 C3         -0.1451    1.1428   -1.7081 CT        1 <0>        0.13835
      4 C4         -0.4912   -1.4466    0.6322 CT        1 <0>        0.09861
      5 C5          0.4289   -0.4177    1.2977 CT        1 <0>        0.10249
      6 C6          0.4245    0.9655    0.6202 CT        1 <0>        0.14758
      7 C7          1.4080    1.9172    1.3006 CT        1 <0>       -0.10004
      8 O1         -0.0964   -1.6716   -0.7156 OS        1 <0>       -0.39742
      9 O2          0.8481    0.8272   -0.7371 OS        1 <0>       -0.40295
     10 O3          0.0483   -0.2914    2.6650 OH        1 <0>       -0.60106
     11 H1         -2.0290    0.4758   -2.5106 HC        1 <0>        0.05164
     12 H2         -1.9539    0.4590   -0.7632 HC        1 <0>        0.05164
     13 H3         -1.9665   -1.8500   -1.5671 H1        1 <0>        0.04634
     14 H4         -0.6332   -1.5195   -2.6692 H1        1 <0>        0.04634
     15 H5          0.3334    1.0504   -2.6892 H1        1 <0>        0.04690
     16 H6         -0.4402    2.1926   -1.5949 H1        1 <0>        0.04690
     17 H7         -0.3944   -2.4008    1.1641 H1        1 <0>        0.04375
     18 H8         -1.5472   -1.1656    0.7274 H1        1 <0>        0.04375
     19 H9          1.4554   -0.8205    1.2600 H1        1 <0>        0.05915
     20 H10        -0.5685    1.4199    0.7008 H1        1 <0>        0.04978
     21 H11         2.4145    1.5068    1.2461 HC        1 <0>        0.04679
     22 H12         1.1311    2.0475    2.3450 HC        1 <0>        0.04679
     23 H13         1.3886    2.8844    0.8019 HC        1 <0>        0.04679
     24 H14         0.1530   -1.1694    3.0636 HO        1 <0>        0.40173
@<TRIPOS>BOND
     1    1    2 1
     2    1    3 1
     3    2    8 1
     4    3    9 1
     5    4    5 1
     6    4    8 1
     7    5    6 1
     8    5   10 1
     9    6    7 1
    10    6    9 1
    11    1   11 1
    12    1   12 1
    13    2   13 1
    14    2   14 1
    15    3   15 1
    16    3   16 1
    17    4   17 1
    18    4   18 1
    19    5   19 1
    20    6   20 1
    21    7   21 1
    22    7   22 1
    23    7   23 1
    24   10   24 1
@<TRIPOS>SUBSTRUCTURE
     1 <0>         1 GROUP 0 A     ****
