@<TRIPOS>MOLECULE
AlkEthOH_r272
   33    33     1     0     0
SMALL
USER_CHARGES

@<TRIPOS>ATOM
      1 C1          0.7778    2.5972   -0.6498 CT        1 <0>       -0.12805
      2 C2         -0.0403   -1.2780    1.0780 CT        1 <0>       -0.09493
      3 C3         -0.4452    2.1250   -1.4492 CT        1 <0>        0.13778
      4 C4          1.8102    1.4987   -0.3876 CT        1 <0>        0.15751
      5 C5         -1.5465    0.6205    0.0675 CT        1 <0>        0.14074
      6 C6         -1.4577   -0.8571    0.5355 CT        1 <0>       -0.04182
      7 C7          1.2215   -0.7626    0.3432 CT        1 <0>        0.36654
      8 C8         -1.8888   -1.7991   -0.6093 CT        1 <0>       -0.09113
      9 C9         -2.4660   -1.0469    1.6920 CT        1 <0>       -0.09113
     10 C10         2.4787   -1.3847    0.9552 CT        1 <0>       -0.13987
     11 O1         -0.8364    0.7904   -1.1559 OS        1 <0>       -0.40449
     12 O2          1.2630    0.6431    0.6052 OS        1 <0>       -0.43680
     13 O3          1.1298   -1.1465   -1.0247 OH        1 <0>       -0.60451
     14 H1          1.2420    3.4247   -1.1978 HC        1 <0>        0.04957
     15 H2          0.4326    3.0072    0.3069 HC        1 <0>        0.04957
     16 H3          0.0322   -0.9915    2.1222 HC        1 <0>        0.05139
     17 H4          0.0004   -2.3630    1.0743 HC        1 <0>        0.05139
     18 H5         -1.2907    2.8104   -1.3229 H1        1 <0>        0.04075
     19 H6         -0.1844    2.1369   -2.5131 H1        1 <0>        0.04075
     20 H7          2.0768    0.9792   -1.3091 H1        1 <0>        0.05002
     21 H8          2.7133    1.9437    0.0341 H1        1 <0>        0.05002
     22 H9         -2.5940    0.9083   -0.1069 H1        1 <0>        0.03361
     23 H10        -1.1722    1.2951    0.8497 H1        1 <0>        0.03361
     24 H11        -2.8624   -1.4901   -0.9637 HC        1 <0>        0.03747
     25 H12        -1.9327   -2.8097   -0.2278 HC        1 <0>        0.03747
     26 H13        -1.1612   -1.7308   -1.4062 HC        1 <0>        0.03747
     27 H14        -3.4587   -0.7655    1.3541 HC        1 <0>        0.03747
     28 H15        -2.1756   -0.4199    2.5294 HC        1 <0>        0.03747
     29 H16        -2.4682   -2.0879    2.0005 HC        1 <0>        0.03747
     30 H17         3.3593   -1.0174    0.4333 HC        1 <0>        0.04637
     31 H18         2.4323   -2.4674    0.8639 HC        1 <0>        0.04637
     32 H19         2.5452   -1.1149    2.0067 HC        1 <0>        0.04637
     33 H20         1.0836   -2.1118   -1.0258 HO        1 <0>        0.41555
@<TRIPOS>BOND
     1    1    3 1
     2    1    4 1
     3    2    6 1
     4    2    7 1
     5    3   11 1
     6    4   12 1
     7    5    6 1
     8    5   11 1
     9    6    8 1
    10    6    9 1
    11    7   10 1
    12    7   12 1
    13    7   13 1
    14    1   14 1
    15    1   15 1
    16    2   16 1
    17    2   17 1
    18    3   18 1
    19    3   19 1
    20    4   20 1
    21    4   21 1
    22    5   22 1
    23    5   23 1
    24    8   24 1
    25    8   25 1
    26    8   26 1
    27    9   27 1
    28    9   28 1
    29    9   29 1
    30   10   30 1
    31   10   31 1
    32   10   32 1
    33   13   33 1
@<TRIPOS>SUBSTRUCTURE
     1 <0>         1 GROUP 0 A     ****
