@<TRIPOS>MOLECULE
AlkEthOH_r285
   25    25     1     0     0
SMALL
USER_CHARGES

@<TRIPOS>ATOM
      1 C1         -0.0828    0.2196    1.2284 CT        1 <0>       -0.12538
      2 C2          1.3045    0.1982   -1.9594 CT        1 <0>        0.10360
      3 C3          1.8631   -0.6611   -0.8311 CT        1 <0>        0.10038
      4 C4         -0.9202    0.5924   -1.1865 CT        1 <0>        0.09928
      5 C5          0.4028   -1.2227    1.0072 CT        1 <0>        0.34256
      6 C6         -1.2292    0.6953    0.3147 CT        1 <0>        0.14132
      7 C7         -1.5794    2.1449    0.6828 CT        1 <0>       -0.12398
      8 O1          0.3538    1.1545   -1.4911 OS        1 <0>       -0.41438
      9 O2          0.8408   -1.5107   -0.3188 OS        1 <0>       -0.41190
     10 O3          1.4251   -1.4999    1.9648 OH        1 <0>       -0.62959
     11 O4         -2.3787   -0.1104    0.5890 OH        1 <0>       -0.60137
     12 H1         -0.4098    0.2878    2.2761 HC        1 <0>        0.06591
     13 H2          0.7630    0.9142    1.1521 HC        1 <0>        0.06591
     14 H3          2.1252    0.7635   -2.4129 H1        1 <0>        0.05611
     15 H4          0.8525   -0.4161   -2.7471 H1        1 <0>        0.05611
     16 H5          2.6441   -1.3120   -1.2380 H1        1 <0>        0.06128
     17 H6          2.3228   -0.0477   -0.0496 H1        1 <0>        0.06128
     18 H7         -1.0229   -0.4393   -1.5462 H1        1 <0>        0.05654
     19 H8         -1.6687    1.1577   -1.7556 H1        1 <0>        0.05654
     20 H9         -0.4284   -1.9048    1.2187 H2        1 <0>        0.08680
     21 H10        -2.3868    2.4934    0.0459 HC        1 <0>        0.04689
     22 H11        -0.7061    2.7740    0.5395 HC        1 <0>        0.04689
     23 H12        -1.8917    2.1874    1.7219 HC        1 <0>        0.04689
     24 H13         1.0190   -1.3905    2.8378 HO        1 <0>        0.41073
     25 H14        -3.0801    0.2096    0.0031 HO        1 <0>        0.40158
@<TRIPOS>BOND
     1    1    5 1
     2    1    6 1
     3    2    3 1
     4    2    8 1
     5    3    9 1
     6    4    6 1
     7    4    8 1
     8    5    9 1
     9    5   10 1
    10    6    7 1
    11    6   11 1
    12    1   12 1
    13    1   13 1
    14    2   14 1
    15    2   15 1
    16    3   16 1
    17    3   17 1
    18    4   18 1
    19    4   19 1
    20    5   20 1
    21    7   21 1
    22    7   22 1
    23    7   23 1
    24   10   24 1
    25   11   25 1
@<TRIPOS>SUBSTRUCTURE
     1 <0>         1 GROUP 0 A     ****
