@<TRIPOS>MOLECULE
AlkEthOH_r935
   26    26     1     0     0
SMALL
USER_CHARGES

@<TRIPOS>ATOM
      1 C1          0.6303    1.7465   -1.3525 CT        1 <0>       -0.07560
      2 C2          1.8341    1.4916   -0.4498 CT        1 <0>       -0.10727
      3 C3         -0.7222    1.3150   -0.7796 CT        1 <0>       -0.07450
      4 C4          1.9382    0.0628    0.0632 CT        1 <0>        0.13753
      5 C5         -0.8514   -0.2146   -0.6552 CT        1 <0>       -0.07191
      6 C6         -0.2537   -0.7871    0.6636 CT        1 <0>        0.34258
      7 C7         -2.3102   -0.6442   -0.8752 CT        1 <0>       -0.08845
      8 C8         -1.1998   -0.6402    1.8638 CT        1 <0>       -0.11049
      9 O1          0.9579   -0.1428    1.0691 OS        1 <0>       -0.45439
     10 O2         -0.0231   -2.1869    0.4526 OH        1 <0>       -0.62727
     11 H1          0.5893    2.8207   -1.5723 HC        1 <0>        0.03890
     12 H2          0.7912    1.2463   -2.3159 HC        1 <0>        0.03890
     13 H3          2.7437    1.7408   -1.0086 HC        1 <0>        0.04895
     14 H4          1.7788    2.1781    0.4043 HC        1 <0>        0.04895
     15 H5         -0.9024    1.8073    0.1827 HC        1 <0>        0.04715
     16 H6         -1.4921    1.6903   -1.4660 HC        1 <0>        0.04715
     17 H7          1.8847   -0.6837   -0.7366 H1        1 <0>        0.05032
     18 H8          2.9123   -0.0585    0.5494 H1        1 <0>        0.05032
     19 H9         -0.3012   -0.6666   -1.4930 HC        1 <0>        0.06942
     20 H10        -2.9292   -0.2354   -0.0824 HC        1 <0>        0.03967
     21 H11        -2.3719   -1.7280   -0.8628 HC        1 <0>        0.03967
     22 H12        -2.6545   -0.2708   -1.8348 HC        1 <0>        0.03967
     23 H13        -0.7275   -1.0563    2.7489 HC        1 <0>        0.05277
     24 H14        -2.1247   -1.1725    1.6618 HC        1 <0>        0.05277
     25 H15        -1.4147    0.4118    2.0276 HC        1 <0>        0.05277
     26 H16         0.3471   -2.5243    1.2800 HO        1 <0>        0.41239
@<TRIPOS>BOND
     1    1    2 1
     2    1    3 1
     3    2    4 1
     4    3    5 1
     5    4    9 1
     6    5    6 1
     7    5    7 1
     8    6    8 1
     9    6    9 1
    10    6   10 1
    11    1   11 1
    12    1   12 1
    13    2   13 1
    14    2   14 1
    15    3   15 1
    16    3   16 1
    17    4   17 1
    18    4   18 1
    19    5   19 1
    20    7   20 1
    21    7   21 1
    22    7   22 1
    23    8   23 1
    24    8   24 1
    25    8   25 1
    26   10   26 1
@<TRIPOS>SUBSTRUCTURE
     1 <0>         1 GROUP 0 A     ****
