@<TRIPOS>MOLECULE
AlkEthOH_r1053
   18    18     1     0     0
SMALL
USER_CHARGES

@<TRIPOS>ATOM
      1 C1          0.2151   -1.3107    0.7604 CT        1 <0>        0.11364
      2 C2         -0.2318   -1.1358   -0.6708 CT        1 <0>        0.11876
      3 C3         -0.1145    0.8948    0.3082 CT        1 <0>        0.51680
      4 C4          0.4524   -2.0682   -1.6472 CT        1 <0>       -0.09787
      5 C5          1.0274    1.8708    0.5462 CT        1 <0>       -0.10638
      6 O1         -0.1311   -0.0685    1.3764 OS        1 <0>       -0.46636
      7 O2          0.1205    0.2224   -0.9412 OS        1 <0>       -0.41652
      8 O3         -1.3268    1.6403    0.2753 OH        1 <0>       -0.60665
      9 H1         -0.2811   -2.1408    1.2700 H1        1 <0>        0.05855
     10 H2          1.3005   -1.4336    0.8453 H1        1 <0>        0.05855
     11 H3         -1.3217   -1.2248   -0.7548 H1        1 <0>        0.06871
     12 H4          1.5391   -1.9797   -1.5637 HC        1 <0>        0.05004
     13 H5          0.1638   -1.8262   -2.6738 HC        1 <0>        0.05004
     14 H6          0.1734   -3.1060   -1.4451 HC        1 <0>        0.05004
     15 H7          1.0601    2.6126   -0.2531 HC        1 <0>        0.06223
     16 H8          1.9786    1.3372    0.5696 HC        1 <0>        0.06223
     17 H9          0.8892    2.3854    1.4982 HC        1 <0>        0.06223
     18 H10        -1.4062    2.0797    1.1367 HO        1 <0>        0.42196
@<TRIPOS>BOND
     1    1    2 1
     2    1    6 1
     3    2    4 1
     4    2    7 1
     5    3    5 1
     6    3    6 1
     7    3    7 1
     8    3    8 1
     9    1    9 1
    10    1   10 1
    11    2   11 1
    12    4   12 1
    13    4   13 1
    14    4   14 1
    15    5   15 1
    16    5   16 1
    17    5   17 1
    18    8   18 1
@<TRIPOS>SUBSTRUCTURE
     1 <0>         1 GROUP 0 A     ****
