@<TRIPOS>MOLECULE
AlkEthOH_r728
   25    25     1     0     0
SMALL
USER_CHARGES

@<TRIPOS>ATOM
      1 C1         -0.0563    2.0943    0.0392 CT        1 <0>        0.09192
      2 C2         -1.0195    1.5024    1.0605 CT        1 <0>        0.11769
      3 C3          1.8681    0.7940   -0.5358 CT        1 <0>        0.09416
      4 C4          1.2989   -0.6122   -0.3571 CT        1 <0>        0.31025
      5 C5         -1.0687   -0.7590    0.1116 CT        1 <0>        0.35338
      6 C6         -2.4018   -0.5040   -0.6022 CT        1 <0>       -0.10847
      7 C7         -1.0870   -2.1999    0.6433 CT        1 <0>       -0.10847
      8 O1          1.2853    1.7372    0.3630 OS        1 <0>       -0.40224
      9 O2         -0.9058    0.0957    1.2491 OS        1 <0>       -0.44304
     10 O3         -0.0321   -0.6385   -0.8719 OS        1 <0>       -0.49374
     11 O4          2.1189   -1.5099   -1.0999 OH        1 <0>       -0.60071
     12 H1         -0.3181    1.8162   -0.9870 H1        1 <0>        0.05474
     13 H2         -0.1216    3.1866    0.0908 H1        1 <0>        0.05474
     14 H3         -0.8039    1.9467    2.0388 H1        1 <0>        0.05665
     15 H4         -2.0546    1.7652    0.8192 H1        1 <0>        0.05665
     16 H5          2.9440    0.7781   -0.3274 H1        1 <0>        0.06025
     17 H6          1.7578    1.1462   -1.5691 H1        1 <0>        0.06025
     18 H7          1.3476   -0.8968    0.6998 H2        1 <0>        0.10562
     19 H8         -2.4175    0.5110   -0.9899 HC        1 <0>        0.05455
     20 H9         -3.2204   -0.6353    0.1003 HC        1 <0>        0.05455
     21 H10        -2.5138   -1.2067   -1.4235 HC        1 <0>        0.05455
     22 H11        -0.1518   -2.4073    1.1548 HC        1 <0>        0.05455
     23 H12        -1.2076   -2.8890   -0.1871 HC        1 <0>        0.05455
     24 H13        -1.9144   -2.3177    1.3367 HC        1 <0>        0.05455
     25 H14         2.0775   -1.2213   -2.0249 HO        1 <0>        0.41307
@<TRIPOS>BOND
     1    1    2 1
     2    1    8 1
     3    2    9 1
     4    3    4 1
     5    3    8 1
     6    4   10 1
     7    4   11 1
     8    5    6 1
     9    5    7 1
    10    5    9 1
    11    5   10 1
    12    1   12 1
    13    1   13 1
    14    2   14 1
    15    2   15 1
    16    3   16 1
    17    3   17 1
    18    4   18 1
    19    6   19 1
    20    6   20 1
    21    6   21 1
    22    7   22 1
    23    7   23 1
    24    7   24 1
    25   11   25 1
@<TRIPOS>SUBSTRUCTURE
     1 <0>         1 GROUP 0 A     ****
