@<TRIPOS>MOLECULE
AlkEthOH_r554
   25    25     1     0     0
SMALL
USER_CHARGES

@<TRIPOS>ATOM
      1 C1          0.9836    1.8844    0.2702 CT        1 <0>       -0.15401
      2 C2          0.2970   -1.5721    0.5315 CT        1 <0>       -0.16018
      3 C3          2.0873    0.8290    0.2933 CT        1 <0>        0.13471
      4 C4          1.5952   -1.4469   -0.2705 CT        1 <0>        0.13859
      5 C5         -0.4144    1.3219    0.5403 CT        1 <0>        0.34516
      6 C6         -0.9581   -0.9459   -0.1131 CT        1 <0>        0.35791
      7 C7         -1.3463   -1.7081   -1.3836 CT        1 <0>       -0.11764
      8 O1          1.8694   -0.1300   -0.7375 OS        1 <0>       -0.40452
      9 O2         -0.7601    0.4162   -0.5039 OS        1 <0>       -0.38795
     10 O3         -1.3240    2.4217    0.5447 OH        1 <0>       -0.58822
     11 O4         -2.0296   -1.0701    0.8284 OH        1 <0>       -0.61835
     12 H1          1.2115    2.6719    0.9982 HC        1 <0>        0.06444
     13 H2          0.9783    2.3621   -0.7187 HC        1 <0>        0.06444
     14 H3          0.1092   -2.6329    0.7447 HC        1 <0>        0.05750
     15 H4          0.4517   -1.1223    1.5196 HC        1 <0>        0.05750
     16 H5          3.0444    1.3170    0.0794 H1        1 <0>        0.04156
     17 H6          2.1773    0.3677    1.2833 H1        1 <0>        0.04156
     18 H7          2.4446   -1.8030    0.3246 H1        1 <0>        0.04710
     19 H8          1.5424   -2.0928   -1.1531 H1        1 <0>        0.04710
     20 H9         -0.4523    0.8647    1.5350 H2        1 <0>        0.05043
     21 H10        -2.2308   -1.2552   -1.8248 HC        1 <0>        0.05713
     22 H11        -1.5584   -2.7455   -1.1362 HC        1 <0>        0.05713
     23 H12        -0.5271   -1.6684   -2.0975 HC        1 <0>        0.05713
     24 H13        -1.0311    3.0168    1.2514 HO        1 <0>        0.40022
     25 H14        -2.1387   -2.0183    0.9891 HO        1 <0>        0.41126
@<TRIPOS>BOND
     1    1    3 1
     2    1    5 1
     3    2    4 1
     4    2    6 1
     5    3    8 1
     6    4    8 1
     7    5    9 1
     8    5   10 1
     9    6    7 1
    10    6    9 1
    11    6   11 1
    12    1   12 1
    13    1   13 1
    14    2   14 1
    15    2   15 1
    16    3   16 1
    17    3   17 1
    18    4   18 1
    19    4   19 1
    20    5   20 1
    21    7   21 1
    22    7   22 1
    23    7   23 1
    24   10   24 1
    25   11   25 1
@<TRIPOS>SUBSTRUCTURE
     1 <0>         1 GROUP 0 A     ****
