@<TRIPOS>MOLECULE
AlkEthOH_r1054
   17    17     1     0     0
SMALL
USER_CHARGES

@<TRIPOS>ATOM
      1 C1          0.7603   -0.1886    0.7626 CT        1 <0>        0.10699
      2 C2          0.2257   -0.1090    2.1721 CT        1 <0>        0.12126
      3 C3          1.6253   -1.8730    2.0080 CT        1 <0>        0.33761
      4 C4          0.1101    1.3020    2.7075 CT        1 <0>       -0.09785
      5 C5          3.1333   -2.0122    2.0914 CT        1 <0>       -0.11708
      6 O1          1.2393   -1.5312    0.6694 OS        1 <0>       -0.44266
      7 O2          1.1913   -0.8533    2.9178 OS        1 <0>       -0.44748
      8 H1         -0.0000    0.0004    0.0001 H1        1 <0>        0.05766
      9 H2          1.6099    0.4839    0.5993 H1        1 <0>        0.05766
     10 H3         -0.7347   -0.6321    2.2556 H1        1 <0>        0.05691
     11 H4          1.1388   -2.8168    2.2766 H2        1 <0>        0.06197
     12 H5          1.0680    1.8228    2.6239 HC        1 <0>        0.04965
     13 H6         -0.1854    1.2889    3.7602 HC        1 <0>        0.04965
     14 H7         -0.6397    1.8648    2.1447 HC        1 <0>        0.04965
     15 H8          3.6171   -1.0702    1.8233 HC        1 <0>        0.05202
     16 H9          3.4812   -2.7894    1.4070 HC        1 <0>        0.05202
     17 H10         3.4342   -2.2817    3.1064 HC        1 <0>        0.05202
@<TRIPOS>BOND
     1    1    2 1
     2    1    6 1
     3    2    4 1
     4    2    7 1
     5    3    5 1
     6    3    6 1
     7    3    7 1
     8    1    8 1
     9    1    9 1
    10    2   10 1
    11    3   11 1
    12    4   12 1
    13    4   13 1
    14    4   14 1
    15    5   15 1
    16    5   16 1
    17    5   17 1
@<TRIPOS>SUBSTRUCTURE
     1 <0>         1 GROUP 0 A     ****
