@<TRIPOS>MOLECULE
AlkEthOH_r48
   25    25     1     0     0
SMALL
USER_CHARGES

@<TRIPOS>ATOM
      1 C1         -1.7143    0.8561    0.7391 CT        1 <0>       -0.07783
      2 C2         -1.7956   -0.6198    1.1372 CT        1 <0>       -0.06377
      3 C3         -0.6262    1.6669    1.4527 CT        1 <0>       -0.09876
      4 C4         -0.5622   -1.4916    0.8792 CT        1 <0>       -0.09750
      5 C5          0.6276    1.9090    0.6130 CT        1 <0>        0.14649
      6 C6         -0.1318   -1.6141   -0.5876 CT        1 <0>        0.36887
      7 C7          1.5368    0.1082   -0.6795 CT        1 <0>        0.53827
      8 O1          1.4624    0.7565    0.5932 OS        1 <0>       -0.44875
      9 O2          0.2807   -0.3761   -1.1587 OS        1 <0>       -0.53408
     10 O3         -1.2318   -2.1421   -1.3293 OH        1 <0>       -0.59157
     11 O4          2.1543    0.9470   -1.6593 OH        1 <0>       -0.61949
     12 H1         -1.6467    0.9678   -0.3479 HC        1 <0>        0.04665
     13 H2         -2.6818    1.2997    1.0120 HC        1 <0>        0.04665
     14 H3         -2.0282   -0.6754    2.2088 HC        1 <0>        0.04422
     15 H4         -2.6585   -1.0637    0.6249 HC        1 <0>        0.04422
     16 H5         -1.0506    2.6517    1.6859 HC        1 <0>        0.04883
     17 H6         -0.3629    1.1967    2.4071 HC        1 <0>        0.04883
     18 H7          0.2669   -1.1448    1.5020 HC        1 <0>        0.06228
     19 H8         -0.8098   -2.4993    1.2392 HC        1 <0>        0.06228
     20 H9          0.3734    2.2648   -0.3924 H1        1 <0>        0.05177
     21 H10         1.2130    2.7014    1.0925 H1        1 <0>        0.05177
     22 H11         0.6839   -2.3436   -0.6635 H2        1 <0>        0.02168
     23 H12         2.2128   -0.7445   -0.5449 H3        1 <0>        0.09427
     24 H13        -0.9345   -2.2093   -2.2491 HO        1 <0>        0.41949
     25 H14         2.1655    0.4387   -2.4835 HO        1 <0>        0.43518
@<TRIPOS>BOND
     1    1    2 1
     2    1    3 1
     3    2    4 1
     4    3    5 1
     5    4    6 1
     6    5    8 1
     7    6    9 1
     8    6   10 1
     9    7    8 1
    10    7    9 1
    11    7   11 1
    12    1   12 1
    13    1   13 1
    14    2   14 1
    15    2   15 1
    16    3   16 1
    17    3   17 1
    18    4   18 1
    19    4   19 1
    20    5   20 1
    21    5   21 1
    22    6   22 1
    23    7   23 1
    24   10   24 1
    25   11   25 1
@<TRIPOS>SUBSTRUCTURE
     1 <0>         1 GROUP 0 A     ****
