@<TRIPOS>MOLECULE
AlkEthOH_r403
   28    28     1     0     0
SMALL
USER_CHARGES

@<TRIPOS>ATOM
      1 C1          0.3953    1.8995   -1.3123 CT        1 <0>       -0.06683
      2 C2         -0.7453    0.8760   -1.3404 CT        1 <0>       -0.07490
      3 C3          1.4822    1.7062   -0.2554 CT        1 <0>       -0.11006
      4 C4         -0.3035   -0.5943   -1.3023 CT        1 <0>       -0.06017
      5 C5          0.9778    1.6549    1.1851 CT        1 <0>        0.13432
      6 C6          0.4138   -0.6710    1.1831 CT        1 <0>        0.13643
      7 C7         -0.4173   -1.3351    0.0626 CT        1 <0>       -0.06972
      8 C8         -1.8954   -1.4288    0.4962 CT        1 <0>       -0.08703
      9 C9          0.1098   -2.7729   -0.1323 CT        1 <0>       -0.08703
     10 O1         -0.0174    0.6656    1.4156 OS        1 <0>       -0.41647
     11 H1          0.8833    1.8978   -2.2958 HC        1 <0>        0.03464
     12 H2         -0.0424    2.8989   -1.1960 HC        1 <0>        0.03464
     13 H3         -1.4712    1.1059   -0.5555 HC        1 <0>        0.04787
     14 H4         -1.2885    1.0391   -2.2812 HC        1 <0>        0.04787
     15 H5          2.0503    0.8003   -0.4912 HC        1 <0>        0.04300
     16 H6          2.1983    2.5331   -0.3395 HC        1 <0>        0.04300
     17 H7         -0.9317   -1.1373   -2.0231 HC        1 <0>        0.03532
     18 H8          0.7182   -0.6846   -1.6923 HC        1 <0>        0.03532
     19 H9          1.8134    1.4912    1.8757 H1        1 <0>        0.04319
     20 H10         0.5330    2.6212    1.4465 H1        1 <0>        0.04319
     21 H11         0.2647   -1.2162    2.1233 H1        1 <0>        0.03892
     22 H12         1.4877   -0.7274    0.9685 H1        1 <0>        0.03892
     23 H13        -1.9526   -1.9466    1.4462 HC        1 <0>        0.03593
     24 H14        -2.4502   -1.9762   -0.2564 HC        1 <0>        0.03593
     25 H15        -2.2981   -0.4279    0.5965 HC        1 <0>        0.03593
     26 H16         0.0386   -3.3052    0.8085 HC        1 <0>        0.03593
     27 H17         1.1432   -2.7290   -0.4545 HC        1 <0>        0.03593
     28 H18        -0.4910   -3.2699   -0.8844 HC        1 <0>        0.03593
@<TRIPOS>BOND
     1    1    2 1
     2    1    3 1
     3    2    4 1
     4    3    5 1
     5    4    7 1
     6    5   10 1
     7    6    7 1
     8    6   10 1
     9    7    8 1
    10    7    9 1
    11    1   11 1
    12    1   12 1
    13    2   13 1
    14    2   14 1
    15    3   15 1
    16    3   16 1
    17    4   17 1
    18    4   18 1
    19    5   19 1
    20    5   20 1
    21    6   21 1
    22    6   22 1
    23    8   23 1
    24    8   24 1
    25    8   25 1
    26    9   26 1
    27    9   27 1
    28    9   28 1
@<TRIPOS>SUBSTRUCTURE
     1 <0>         1 GROUP 0 A     ****
