@<TRIPOS>MOLECULE
AlkEthOH_r579
   26    26     1     0     0
SMALL
USER_CHARGES

@<TRIPOS>ATOM
      1 C1          1.5043   -0.1089    0.9057 CT        1 <0>       -0.16510
      2 C2          1.3539   -1.6293    0.8032 CT        1 <0>        0.14788
      3 C3          0.2670   -1.7321   -1.3241 CT        1 <0>        0.34218
      4 C4          0.2097    0.6726    1.2107 CT        1 <0>        0.37424
      5 C5         -0.7157    0.4761   -1.0632 CT        1 <0>        0.54717
      6 C6         -0.2611    0.3709    2.6385 CT        1 <0>       -0.11459
      7 C7         -2.0689    0.0994   -1.6843 CT        1 <0>       -0.11306
      8 O1          0.2100   -2.0465    0.0649 OS        1 <0>       -0.43168
      9 O2          0.3135   -0.3418   -1.6367 OS        1 <0>       -0.51886
     10 O3         -0.8890    0.3303    0.3559 OS        1 <0>       -0.41182
     11 O4          0.5305    2.0654    1.1386 OH        1 <0>       -0.58759
     12 O5         -0.4541    1.8439   -1.4091 OH        1 <0>       -0.57721
     13 H1          2.2672    0.1254    1.6606 HC        1 <0>        0.06385
     14 H2          1.9390    0.2710   -0.0270 HC        1 <0>        0.06385
     15 H3          2.2573   -2.0764    0.3721 H1        1 <0>        0.04706
     16 H4          1.2476   -2.0478    1.8096 H1        1 <0>        0.04706
     17 H5          1.1541   -2.2036   -1.7615 H2        1 <0>        0.06255
     18 H6         -0.5996   -2.1875   -1.8130 H2        1 <0>        0.06255
     19 H7         -1.1730    0.9250    2.8451 HC        1 <0>        0.05287
     20 H8          0.5095    0.6671    3.3452 HC        1 <0>        0.05287
     21 H9         -0.4545   -0.6938    2.7398 HC        1 <0>        0.05287
     22 H10        -2.8531    0.7169   -1.2529 HC        1 <0>        0.06127
     23 H11        -2.2839   -0.9474   -1.4837 HC        1 <0>        0.06127
     24 H12        -2.0346    0.2603   -2.7592 HC        1 <0>        0.06127
     25 H13         1.2150    2.2199    1.8054 HO        1 <0>        0.39806
     26 H14        -0.4326    1.8784   -2.3762 HO        1 <0>        0.42104
@<TRIPOS>BOND
     1    1    2 1
     2    1    4 1
     3    2    8 1
     4    3    8 1
     5    3    9 1
     6    4    6 1
     7    4   10 1
     8    4   11 1
     9    5    7 1
    10    5    9 1
    11    5   10 1
    12    5   12 1
    13    1   13 1
    14    1   14 1
    15    2   15 1
    16    2   16 1
    17    3   17 1
    18    3   18 1
    19    6   19 1
    20    6   20 1
    21    6   21 1
    22    7   22 1
    23    7   23 1
    24    7   24 1
    25   11   25 1
    26   12   26 1
@<TRIPOS>SUBSTRUCTURE
     1 <0>         1 GROUP 0 A     ****
