@<TRIPOS>MOLECULE
AlkEthOH_r578
   28    28     1     0     0
SMALL
USER_CHARGES

@<TRIPOS>ATOM
      1 C1          0.8808    1.3209   -0.7905 CT        1 <0>       -0.13221
      2 C2          0.7311    0.5154   -2.0870 CT        1 <0>        0.14376
      3 C3         -1.3607   -0.5459   -1.6403 CT        1 <0>        0.34268
      4 C4          1.2416    0.4969    0.4675 CT        1 <0>        0.19171
      5 C5         -1.0606   -0.4175    0.7657 CT        1 <0>        0.54540
      6 C6          1.3345    1.4184    1.6931 CT        1 <0>       -0.10271
      7 C7          2.6241   -0.1559    0.2792 CT        1 <0>       -0.10271
      8 C8         -1.6474   -1.8058    1.0461 CT        1 <0>       -0.11517
      9 O1          0.0255   -0.7101   -1.9240 OS        1 <0>       -0.43094
     10 O2         -1.6579    0.1232   -0.4180 OS        1 <0>       -0.51702
     11 O3          0.3602   -0.6064    0.7190 OS        1 <0>       -0.42485
     12 O4         -1.4712    0.3669    1.8893 OH        1 <0>       -0.61050
     13 H1          1.6340    2.1028   -0.9551 HC        1 <0>        0.05891
     14 H2         -0.0548    1.8630   -0.6098 HC        1 <0>        0.05891
     15 H3          0.2519    1.1228   -2.8638 H1        1 <0>        0.04516
     16 H4          1.7263    0.2567   -2.4646 H1        1 <0>        0.04516
     17 H5         -1.8278    0.0204   -2.4538 H2        1 <0>        0.06106
     18 H6         -1.8303   -1.5342   -1.6426 H2        1 <0>        0.06106
     19 H7          1.5881    0.8287    2.5688 HC        1 <0>        0.04593
     20 H8          0.3780    1.9080    1.8489 HC        1 <0>        0.04593
     21 H9          2.1028    2.1667    1.5236 HC        1 <0>        0.04593
     22 H10         2.8696   -0.7315    1.1648 HC        1 <0>        0.04593
     23 H11         3.3665    0.6199    0.1284 HC        1 <0>        0.04593
     24 H12         2.5945   -0.8088   -0.5862 HC        1 <0>        0.04593
     25 H13        -1.1946   -2.2170    1.9444 HC        1 <0>        0.06053
     26 H14        -1.4429   -2.4632    0.2052 HC        1 <0>        0.06053
     27 H15        -2.7219   -1.7241    1.1879 HC        1 <0>        0.06053
     28 H16        -2.4393    0.3513    1.8913 HO        1 <0>        0.42513
@<TRIPOS>BOND
     1    1    2 1
     2    1    4 1
     3    2    9 1
     4    3    9 1
     5    3   10 1
     6    4    6 1
     7    4    7 1
     8    4   11 1
     9    5    8 1
    10    5   10 1
    11    5   11 1
    12    5   12 1
    13    1   13 1
    14    1   14 1
    15    2   15 1
    16    2   16 1
    17    3   17 1
    18    3   18 1
    19    6   19 1
    20    6   20 1
    21    6   21 1
    22    7   22 1
    23    7   23 1
    24    7   24 1
    25    8   25 1
    26    8   26 1
    27    8   27 1
    28   12   28 1
@<TRIPOS>SUBSTRUCTURE
     1 <0>         1 GROUP 0 A     ****
