@<TRIPOS>MOLECULE
AlkEthOH_r22
   21    21     1     0     0
SMALL
USER_CHARGES

@<TRIPOS>ATOM
      1 C1          0.1598   -0.2727    1.7375 CT        1 <0>       -0.10295
      2 C2          1.3498    0.1233    0.8568 CT        1 <0>       -0.09539
      3 C3         -0.6783   -1.4565    1.2482 CT        1 <0>        0.13913
      4 C4         -0.0724    1.2224   -1.0156 CT        1 <0>        0.14413
      5 C5         -1.8463   -0.3190   -0.5175 CT        1 <0>        0.31917
      6 C6          1.1005    0.3072   -0.6463 CT        1 <0>        0.11185
      7 O1         -1.0280   -1.4191   -0.1303 OS        1 <0>       -0.45258
      8 O2         -1.2799    0.9714   -0.3088 OS        1 <0>       -0.44508
      9 O3          2.2948    0.8430   -1.2239 OH        1 <0>       -0.60648
     10 H1          0.5327   -0.5070    2.7428 HC        1 <0>        0.05511
     11 H2         -0.4859    0.6013    1.8783 HC        1 <0>        0.05511
     12 H3          1.7839    1.0475    1.2616 HC        1 <0>        0.04086
     13 H4          2.1403   -0.6299    0.9770 HC        1 <0>        0.04086
     14 H5         -0.1036   -2.3773    1.3968 H1        1 <0>        0.04544
     15 H6         -1.5891   -1.5512    1.8507 H1        1 <0>        0.04544
     16 H7          0.2060    2.2632   -0.8115 H1        1 <0>        0.05955
     17 H8         -0.2642    1.1759   -2.0948 H1        1 <0>        0.05955
     18 H9         -2.0854   -0.4337   -1.5802 H2        1 <0>        0.06364
     19 H10        -2.7911   -0.3674    0.0345 H2        1 <0>        0.06364
     20 H11         0.9662   -0.6771   -1.1058 H1        1 <0>        0.05707
     21 H12         2.9934    0.1952   -1.0513 HO        1 <0>        0.40193
@<TRIPOS>BOND
     1    1    2 1
     2    1    3 1
     3    2    6 1
     4    3    7 1
     5    4    6 1
     6    4    8 1
     7    5    7 1
     8    5    8 1
     9    6    9 1
    10    1   10 1
    11    1   11 1
    12    2   12 1
    13    2   13 1
    14    3   14 1
    15    3   15 1
    16    4   16 1
    17    4   17 1
    18    5   18 1
    19    5   19 1
    20    6   20 1
    21    9   21 1
@<TRIPOS>SUBSTRUCTURE
     1 <0>         1 GROUP 0 A     ****
