@<TRIPOS>MOLECULE
AlkEthOH_r717
   22    22     1     0     0
SMALL
USER_CHARGES

@<TRIPOS>ATOM
      1 C1          0.7581    2.1016   -0.5327 CT        1 <0>       -0.12512
      2 C2          1.8936    1.0806   -0.5261 CT        1 <0>        0.13943
      3 C3         -0.4477    1.6744    0.3016 CT        1 <0>        0.15940
      4 C4          1.3107   -1.2060   -0.2155 CT        1 <0>        0.33934
      5 C5         -0.9604   -0.6935    0.3888 CT        1 <0>        0.53960
      6 C6         -1.8435   -0.6575    1.6451 CT        1 <0>       -0.09841
      7 O1          1.4663   -0.1319   -1.1398 OS        1 <0>       -0.44206
      8 O2         -1.0934    0.5563   -0.3041 OS        1 <0>       -0.47832
      9 O3          0.3734   -0.9798    0.8369 OS        1 <0>       -0.48606
     10 O4         -1.4571   -1.7441   -0.4541 OH        1 <0>       -0.61789
     11 H1          1.1360    3.0585   -0.1562 HC        1 <0>        0.05742
     12 H2          0.4293    2.2491   -1.5687 HC        1 <0>        0.05742
     13 H3          2.7209    1.4708   -1.1286 H1        1 <0>        0.04498
     14 H4          2.2776    0.9190    0.4884 H1        1 <0>        0.04498
     15 H5         -0.1542    1.4880    1.3398 H1        1 <0>        0.04725
     16 H6         -1.1754    2.4927    0.3099 H1        1 <0>        0.04725
     17 H7          1.0266   -2.1033   -0.7752 H2        1 <0>        0.07361
     18 H8          2.2825   -1.4213    0.2431 H2        1 <0>        0.07361
     19 H9         -1.7533   -1.5990    2.1815 HC        1 <0>        0.06004
     20 H10        -2.8809   -0.5051    1.3574 HC        1 <0>        0.06004
     21 H11        -1.5255    0.1571    2.2913 HC        1 <0>        0.06004
     22 H12        -2.3738   -1.5128   -0.6611 HO        1 <0>        0.44345
@<TRIPOS>BOND
     1    1    2 1
     2    1    3 1
     3    2    7 1
     4    3    8 1
     5    4    7 1
     6    4    9 1
     7    5    6 1
     8    5    8 1
     9    5    9 1
    10    5   10 1
    11    1   11 1
    12    1   12 1
    13    2   13 1
    14    2   14 1
    15    3   15 1
    16    3   16 1
    17    4   17 1
    18    4   18 1
    19    6   19 1
    20    6   20 1
    21    6   21 1
    22   10   22 1
@<TRIPOS>SUBSTRUCTURE
     1 <0>         1 GROUP 0 A     ****
