@<TRIPOS>MOLECULE
AlkEthOH_r333
   29    29     1     0     0
SMALL
USER_CHARGES

@<TRIPOS>ATOM
      1 C1          2.0571    0.5691    0.0869 CT        1 <0>       -0.07011
      2 C2          2.0301   -0.8019   -0.5783 CT        1 <0>       -0.07058
      3 C3          1.0177    0.7074    1.1961 CT        1 <0>       -0.09661
      4 C4          0.7862   -1.0748   -1.4202 CT        1 <0>       -0.12535
      5 C5         -0.4052    1.0711    0.7273 CT        1 <0>        0.18084
      6 C6         -0.5545   -0.9755   -0.6757 CT        1 <0>        0.36194
      7 C7         -1.4088    0.8384    1.8687 CT        1 <0>       -0.10208
      8 C8         -0.4628    2.5662    0.3606 CT        1 <0>       -0.10208
      9 C9         -1.6612   -1.4920   -1.6055 CT        1 <0>       -0.11957
     10 O1         -0.8704    0.3966   -0.4410 OS        1 <0>       -0.42435
     11 O2         -0.5283   -1.8047    0.4810 OH        1 <0>       -0.61654
     12 H1          3.0494    0.6957    0.5383 HC        1 <0>        0.04258
     13 H2          1.9564    1.3615   -0.6617 HC        1 <0>        0.04258
     14 H3          2.9074   -0.8851   -1.2321 HC        1 <0>        0.03853
     15 H4          2.1442   -1.5857    0.1807 HC        1 <0>        0.03853
     16 H5          1.0009   -0.2224    1.7786 HC        1 <0>        0.05207
     17 H6          1.3616    1.4760    1.9016 HC        1 <0>        0.05207
     18 H7          0.7854   -0.3810   -2.2710 HC        1 <0>        0.05143
     19 H8          0.8988   -2.0882   -1.8275 HC        1 <0>        0.05143
     20 H9         -2.4061    1.0974    1.5279 HC        1 <0>        0.04272
     21 H10        -1.1396    1.4614    2.7156 HC        1 <0>        0.04272
     22 H11        -1.3832   -0.2064    2.1615 HC        1 <0>        0.04272
     23 H12        -1.4662    2.8137    0.0321 HC        1 <0>        0.04272
     24 H13         0.2438    2.7644   -0.4376 HC        1 <0>        0.04272
     25 H14        -0.2062    3.1568    1.2331 HC        1 <0>        0.04272
     26 H15        -2.6189   -1.4300   -1.0968 HC        1 <0>        0.05004
     27 H16        -1.4575   -2.5255   -1.8703 HC        1 <0>        0.05004
     28 H17        -1.6889   -0.8853   -2.5061 HC        1 <0>        0.05004
     29 H18        -0.3754   -2.7109    0.1700 HO        1 <0>        0.40883
@<TRIPOS>BOND
     1    1    2 1
     2    1    3 1
     3    2    4 1
     4    3    5 1
     5    4    6 1
     6    5    7 1
     7    5    8 1
     8    5   10 1
     9    6    9 1
    10    6   10 1
    11    6   11 1
    12    1   12 1
    13    1   13 1
    14    2   14 1
    15    2   15 1
    16    3   16 1
    17    3   17 1
    18    4   18 1
    19    4   19 1
    20    7   20 1
    21    7   21 1
    22    7   22 1
    23    8   23 1
    24    8   24 1
    25    8   25 1
    26    9   26 1
    27    9   27 1
    28    9   28 1
    29   11   29 1
@<TRIPOS>SUBSTRUCTURE
     1 <0>         1 GROUP 0 A     ****
