@<TRIPOS>MOLECULE
AlkEthOH_r575
   27    27     1     0     0
SMALL
USER_CHARGES

@<TRIPOS>ATOM
      1 C1         -1.1510    0.2647   -1.0190 CT        1 <0>       -0.10159
      2 C2          0.5971   -0.9987    0.4887 CT        1 <0>       -0.08945
      3 C3         -0.0962    0.8870   -1.9417 CT        1 <0>        0.14179
      4 C4          1.2823    1.8596   -0.2379 CT        1 <0>        0.33758
      5 C5          0.8632    0.1888    1.4321 CT        1 <0>        0.36019
      6 C6         -0.7618   -1.0450   -0.2762 CT        1 <0>       -0.03092
      7 C7         -1.9039   -1.3846    0.7053 CT        1 <0>       -0.09092
      8 C8         -0.6753   -2.1965   -1.3035 CT        1 <0>       -0.09092
      9 O1          1.2025    1.0041   -1.3743 OS        1 <0>       -0.45097
     10 O2          0.5067    1.4527    0.8862 OS        1 <0>       -0.49300
     11 O3          0.1363   -0.0320    2.6403 OH        1 <0>       -0.60160
     12 H1         -1.4663    1.0173   -0.2865 HC        1 <0>        0.05563
     13 H2         -2.0519    0.0837   -1.6220 HC        1 <0>        0.05563
     14 H3          1.4124   -1.0424   -0.2438 HC        1 <0>        0.06160
     15 H4          0.6979   -1.9253    1.0719 HC        1 <0>        0.06160
     16 H5          0.0073    0.2669   -2.8385 H1        1 <0>        0.04470
     17 H6         -0.4311    1.8738   -2.2825 H1        1 <0>        0.04470
     18 H7          2.3338    1.9295    0.0609 H2        1 <0>        0.06143
     19 H8          0.9598    2.8663   -0.5248 H2        1 <0>        0.06143
     20 H9          1.9271    0.1970    1.6997 H2        1 <0>        0.02463
     21 H10        -1.6542   -2.2958    1.2354 HC        1 <0>        0.03637
     22 H11        -2.8208   -1.5227    0.1452 HC        1 <0>        0.03637
     23 H12        -2.0195   -0.5682    1.4080 HC        1 <0>        0.03637
     24 H13        -0.4044   -3.1084   -0.7864 HC        1 <0>        0.03637
     25 H14         0.0772   -1.9517   -2.0423 HC        1 <0>        0.03637
     26 H15        -1.6399   -2.3136   -1.7812 HC        1 <0>        0.03637
     27 H16         0.3208    0.7271    3.2140 HO        1 <0>        0.42024
@<TRIPOS>BOND
     1    1    3 1
     2    1    6 1
     3    2    5 1
     4    2    6 1
     5    3    9 1
     6    4    9 1
     7    4   10 1
     8    5   10 1
     9    5   11 1
    10    6    7 1
    11    6    8 1
    12    1   12 1
    13    1   13 1
    14    2   14 1
    15    2   15 1
    16    3   16 1
    17    3   17 1
    18    4   18 1
    19    4   19 1
    20    5   20 1
    21    7   21 1
    22    7   22 1
    23    7   23 1
    24    8   24 1
    25    8   25 1
    26    8   26 1
    27   11   27 1
@<TRIPOS>SUBSTRUCTURE
     1 <0>         1 GROUP 0 A     ****
