@<TRIPOS>MOLECULE
AlkEthOH_r484
   30    30     1     0     0
SMALL
USER_CHARGES

@<TRIPOS>ATOM
      1 C1         -0.2157    1.1712    2.0192 CT        1 <0>       -0.08667
      2 C2         -0.1092    1.6669    0.5723 CT        1 <0>       -0.09733
      3 C3         -0.4288   -0.3268    2.1815 CT        1 <0>        0.12835
      4 C4         -1.0823   -1.7169    0.3556 CT        1 <0>        0.09076
      5 C5          0.9499    0.9884   -0.3255 CT        1 <0>        0.18970
      6 C6         -0.4100   -1.0471   -0.8554 CT        1 <0>        0.33358
      7 C7          0.9682    1.6469   -1.7164 CT        1 <0>       -0.10306
      8 C8          2.3502    1.1870    0.2866 CT        1 <0>       -0.10306
      9 C9         -0.0019   -2.1412   -1.8476 CT        1 <0>       -0.12729
     10 O1         -1.4899   -0.7656    1.3393 OS        1 <0>       -0.41130
     11 O2          0.8178   -0.4298   -0.4583 OS        1 <0>       -0.43978
     12 O3         -1.3483   -0.2331   -1.5511 OH        1 <0>       -0.60494
     13 H1          0.6659    1.4769    2.5938 HC        1 <0>        0.04285
     14 H2         -1.0697    1.6909    2.4730 HC        1 <0>        0.04285
     15 H3         -1.1010    1.5784    0.1157 HC        1 <0>        0.05869
     16 H4          0.0934    2.7460    0.6075 HC        1 <0>        0.05869
     17 H5          0.5025   -0.8782    2.0087 H1        1 <0>        0.04579
     18 H6         -0.7246   -0.5339    3.2160 H1        1 <0>        0.04579
     19 H7         -1.9993   -2.2215    0.0303 H1        1 <0>        0.05429
     20 H8         -0.4350   -2.4710    0.8201 H1        1 <0>        0.05429
     21 H9          1.7160    1.1594   -2.3329 HC        1 <0>        0.04385
     22 H10         1.2107    2.6989   -1.6106 HC        1 <0>        0.04385
     23 H11        -0.0094    1.5410   -2.1748 HC        1 <0>        0.04385
     24 H12         3.0868    0.7084   -0.3488 HC        1 <0>        0.04385
     25 H13         2.3723    0.7414    1.2747 HC        1 <0>        0.04385
     26 H14         2.5597    2.2484    0.3572 HC        1 <0>        0.04385
     27 H15         0.4756   -1.6868   -2.7111 HC        1 <0>        0.05046
     28 H16        -0.8848   -2.6873   -2.1674 HC        1 <0>        0.05046
     29 H17         0.6927   -2.8245   -1.3672 HC        1 <0>        0.05046
     30 H18        -2.0635   -0.8208   -1.8406 HO        1 <0>        0.41332
@<TRIPOS>BOND
     1    1    2 1
     2    1    3 1
     3    2    5 1
     4    3   10 1
     5    4    6 1
     6    4   10 1
     7    5    7 1
     8    5    8 1
     9    5   11 1
    10    6    9 1
    11    6   11 1
    12    6   12 1
    13    1   13 1
    14    1   14 1
    15    2   15 1
    16    2   16 1
    17    3   17 1
    18    3   18 1
    19    4   19 1
    20    4   20 1
    21    7   21 1
    22    7   22 1
    23    7   23 1
    24    8   24 1
    25    8   25 1
    26    8   26 1
    27    9   27 1
    28    9   28 1
    29    9   29 1
    30   12   30 1
@<TRIPOS>SUBSTRUCTURE
     1 <0>         1 GROUP 0 A     ****
