@<TRIPOS>MOLECULE
AlkEthOH_r222
   17    17     1     0     0
SMALL
USER_CHARGES

@<TRIPOS>ATOM
      1 C1          0.6249    0.8301   -0.3708 CT        1 <0>       -0.11771
      2 C2         -0.2140   -0.8192    0.7122 CT        1 <0>       -0.11771
      3 C3          1.2131   -0.4507    0.2573 CT        1 <0>        0.12160
      4 C4         -0.7751    0.1616   -0.3516 CT        1 <0>        0.13171
      5 C5         -1.1840   -0.4845   -1.6695 CT        1 <0>       -0.11693
      6 O1          2.1744   -0.2557    1.3083 OH        1 <0>       -0.58328
      7 O2         -1.8391    1.0185    0.1141 OH        1 <0>       -0.57579
      8 H1          0.7047    1.7173    0.2687 HC        1 <0>        0.06849
      9 H2          1.0207    1.0822   -1.3593 HC        1 <0>        0.06849
     10 H3         -0.4832   -1.8716    0.5792 HC        1 <0>        0.06849
     11 H4         -0.4405   -0.5332    1.7463 HC        1 <0>        0.06849
     12 H5          1.6073   -1.1447   -0.4960 H1        1 <0>        0.04629
     13 H6         -2.1744   -0.9299   -1.5751 HC        1 <0>        0.04514
     14 H7         -0.4706   -1.2629   -1.9403 HC        1 <0>        0.04514
     15 H8         -1.2071    0.2650   -2.4608 HC        1 <0>        0.04514
     16 H9          2.4409   -1.1409    1.5896 HO        1 <0>        0.40132
     17 H10        -2.6394    0.4812    0.0738 HO        1 <0>        0.40112
@<TRIPOS>BOND
     1    1    3 1
     2    1    4 1
     3    2    3 1
     4    2    4 1
     5    3    6 1
     6    4    5 1
     7    4    7 1
     8    1    8 1
     9    1    9 1
    10    2   10 1
    11    2   11 1
    12    3   12 1
    13    5   13 1
    14    5   14 1
    15    5   15 1
    16    6   16 1
    17    7   17 1
@<TRIPOS>SUBSTRUCTURE
     1 <0>         1 GROUP 0 A     ****
