@<TRIPOS>MOLECULE
AlkEthOH_r860
   22    22     1     0     0
SMALL
USER_CHARGES

@<TRIPOS>ATOM
      1 C1         -0.2885    0.8406   -0.6410 CT        1 <0>       -0.07428
      2 C2         -1.8034    0.8425   -0.8545 CT        1 <0>       -0.07621
      3 C3          0.3457    0.7107   -2.0283 CT        1 <0>       -0.10676
      4 C4         -2.0040    0.9317   -2.3714 CT        1 <0>       -0.05084
      5 C5         -0.7774    0.1902   -2.9285 CT        1 <0>        0.14543
      6 C6         -3.3581    0.3848   -2.8020 CT        1 <0>       -0.08020
      7 C7         -0.5084    0.4568   -4.4037 CT        1 <0>       -0.11774
      8 O1         -0.8906   -1.2180   -2.7252 OH        1 <0>       -0.59145
      9 H1          0.0475    1.7582   -0.1466 HC        1 <0>        0.04186
     10 H2         -0.0001   -0.0001    0.0000 HC        1 <0>        0.04186
     11 H3         -2.2310   -0.0831   -0.4503 HC        1 <0>        0.04539
     12 H4         -2.2834    1.6784   -0.3349 HC        1 <0>        0.04539
     13 H5          0.6881    1.6986   -2.3600 HC        1 <0>        0.04560
     14 H6          1.2106    0.0396   -1.9984 HC        1 <0>        0.04560
     15 H7         -1.9490    1.9895   -2.6650 HC        1 <0>        0.04584
     16 H8         -3.4426   -0.6660   -2.5235 HC        1 <0>        0.03931
     17 H9         -3.4705    0.4734   -3.8829 HC        1 <0>        0.03931
     18 H10        -4.1586    0.9440   -2.3168 HC        1 <0>        0.03931
     19 H11        -1.3297    0.0717   -5.0085 HC        1 <0>        0.04234
     20 H12         0.4157   -0.0342   -4.7093 HC        1 <0>        0.04234
     21 H13        -0.4135    1.5288   -4.5781 HC        1 <0>        0.04234
     22 H14        -0.0332   -1.5996   -2.9672 HO        1 <0>        0.39556
@<TRIPOS>BOND
     1    1    2 1
     2    1    3 1
     3    2    4 1
     4    3    5 1
     5    4    5 1
     6    4    6 1
     7    5    7 1
     8    5    8 1
     9    1    9 1
    10    1   10 1
    11    2   11 1
    12    2   12 1
    13    3   13 1
    14    3   14 1
    15    4   15 1
    16    6   16 1
    17    6   17 1
    18    6   18 1
    19    7   19 1
    20    7   20 1
    21    7   21 1
    22    8   22 1
@<TRIPOS>SUBSTRUCTURE
     1 <0>         1 GROUP 0 A     ****
