@<TRIPOS>MOLECULE
AlkEthOH_r606
   14    14     1     0     0
SMALL
USER_CHARGES

@<TRIPOS>ATOM
      1 C1         -0.2293    0.9335   -0.7863 CT        1 <0>        0.10392
      2 C2          0.0275   -1.1011   -0.5639 CT        1 <0>        0.10392
      3 C3          0.1396    0.0671    0.4279 CT        1 <0>        0.09056
      4 C4          1.5354    0.3113    0.9774 CT        1 <0>       -0.11921
      5 O1         -0.5011   -0.2348   -1.5943 OS        1 <0>       -0.41934
      6 O2         -0.8236    0.0707    1.4993 OH        1 <0>       -0.57467
      7 H1         -1.1162    1.5649   -0.6785 H1        1 <0>        0.06418
      8 H2          0.5872    1.5257   -1.2115 H1        1 <0>        0.06418
      9 H3          0.9756   -1.5512   -0.8744 H1        1 <0>        0.06418
     10 H4         -0.6802   -1.8924   -0.3001 H1        1 <0>        0.06418
     11 H5          1.7217   -0.3384    1.8343 HC        1 <0>        0.05053
     12 H6          1.6383    1.3500    1.2960 HC        1 <0>        0.05053
     13 H7          2.2836    0.1037    0.2105 HC        1 <0>        0.05053
     14 H8         -0.4588   -0.5090    2.1797 HO        1 <0>        0.40651
@<TRIPOS>BOND
     1    1    3 1
     2    1    5 1
     3    2    3 1
     4    2    5 1
     5    3    4 1
     6    3    6 1
     7    1    7 1
     8    1    8 1
     9    2    9 1
    10    2   10 1
    11    4   11 1
    12    4   12 1
    13    4   13 1
    14    6   14 1
@<TRIPOS>SUBSTRUCTURE
     1 <0>         1 GROUP 0 A     ****
