@<TRIPOS>MOLECULE
AlkEthOH_r1118
   26    26     1     0     0
SMALL
USER_CHARGES

@<TRIPOS>ATOM
      1 C1          0.0318   -1.7421   -0.9910 CT        1 <0>       -0.10936
      2 C2          0.9440   -0.5385   -1.2361 CT        1 <0>       -0.10344
      3 C3         -0.0019   -2.1534    0.4786 CT        1 <0>        0.13201
      4 C4         -0.1492    0.0687    1.3465 CT        1 <0>        0.32898
      5 C5          0.3145    0.8349   -0.9146 CT        1 <0>        0.15521
      6 C6         -0.7307    0.7533    2.5760 CT        1 <0>       -0.08668
      7 C7         -0.5618    1.2957   -2.0906 CT        1 <0>       -0.10193
      8 C8          1.4168    1.8822   -0.6969 CT        1 <0>       -0.10193
      9 O1         -0.7112   -1.2419    1.3063 OS        1 <0>       -0.43318
     10 O2         -0.5524    0.8410    0.2219 OS        1 <0>       -0.43008
     11 H1         -0.9814   -1.5380   -1.3527 HC        1 <0>        0.05760
     12 H2          0.4222   -2.5886   -1.5685 HC        1 <0>        0.05760
     13 H3          1.8623   -0.6768   -0.6500 HC        1 <0>        0.04499
     14 H4          1.2699   -0.5455   -2.2846 HC        1 <0>        0.04499
     15 H5         -0.5174   -3.1162    0.5616 H1        1 <0>        0.04504
     16 H6          1.0086   -2.3005    0.8778 H1        1 <0>        0.04504
     17 H7          0.9409    0.0286    1.4605 H2        1 <0>        0.03688
     18 H8         -1.8165    0.8095    2.4941 HC        1 <0>        0.05302
     19 H9         -0.3308    1.7637    2.6653 HC        1 <0>        0.05302
     20 H10        -0.4730    0.1909    3.4739 HC        1 <0>        0.05302
     21 H11        -0.9995    2.2608   -1.8558 HC        1 <0>        0.04320
     22 H12        -1.3504    0.5688   -2.2573 HC        1 <0>        0.04320
     23 H13         0.0504    1.3805   -2.9830 HC        1 <0>        0.04320
     24 H14         0.9623    2.8423   -0.4719 HC        1 <0>        0.04320
     25 H15         2.0168    1.9664   -1.5980 HC        1 <0>        0.04320
     26 H16         2.0471    1.5750    0.1323 HC        1 <0>        0.04320
@<TRIPOS>BOND
     1    1    2 1
     2    1    3 1
     3    2    5 1
     4    3    9 1
     5    4    6 1
     6    4    9 1
     7    4   10 1
     8    5    7 1
     9    5    8 1
    10    5   10 1
    11    1   11 1
    12    1   12 1
    13    2   13 1
    14    2   14 1
    15    3   15 1
    16    3   16 1
    17    4   17 1
    18    6   18 1
    19    6   19 1
    20    6   20 1
    21    7   21 1
    22    7   22 1
    23    7   23 1
    24    8   24 1
    25    8   25 1
    26    8   26 1
@<TRIPOS>SUBSTRUCTURE
     1 <0>         1 GROUP 0 A     ****
