@<TRIPOS>MOLECULE
AlkEthOH_r956
   16    16     1     0     0
SMALL
USER_CHARGES

@<TRIPOS>ATOM
      1 C1         -0.9090    0.2857    0.5427 CT        1 <0>       -0.10974
      2 C2         -1.7800   -0.9269    0.7554 CT        1 <0>       -0.10807
      3 C3         -1.7861    1.1505   -0.3375 CT        1 <0>        0.12455
      4 C4         -2.4351   -1.0714   -0.6072 CT        1 <0>        0.13570
      5 C5         -3.7748   -1.7801   -0.5622 CT        1 <0>       -0.09652
      6 O1         -2.6057    0.2632   -1.1130 OS        1 <0>       -0.42848
      7 H1         -0.6117    0.7829    1.4696 HC        1 <0>        0.05352
      8 H2          0.0001    0.0003    0.0002 HC        1 <0>        0.05352
      9 H3         -1.2199   -1.8171    1.0546 HC        1 <0>        0.05491
     10 H4         -2.5256   -0.7124    1.5306 HC        1 <0>        0.05491
     11 H5         -2.4525    1.7789    0.2630 H1        1 <0>        0.04523
     12 H6         -1.2063    1.7946   -1.0045 H1        1 <0>        0.04523
     13 H7         -1.7631   -1.5954   -1.2974 H1        1 <0>        0.04291
     14 H8         -4.4536   -1.2667    0.1229 HC        1 <0>        0.04411
     15 H9         -3.6487   -2.8100   -0.2200 HC        1 <0>        0.04411
     16 H10        -4.2297   -1.7966   -1.5554 HC        1 <0>        0.04411
@<TRIPOS>BOND
     1    1    2 1
     2    1    3 1
     3    2    4 1
     4    3    6 1
     5    4    5 1
     6    4    6 1
     7    1    7 1
     8    1    8 1
     9    2    9 1
    10    2   10 1
    11    3   11 1
    12    3   12 1
    13    4   13 1
    14    5   14 1
    15    5   15 1
    16    5   16 1
@<TRIPOS>SUBSTRUCTURE
     1 <0>         1 GROUP 0 A     ****
