@<TRIPOS>MOLECULE
AlkEthOH_r1130
   20    20     1     0     0
SMALL
USER_CHARGES

@<TRIPOS>ATOM
      1 C1          0.8511   -0.7843   -1.8056 CT        1 <0>       -0.10525
      2 C2          0.8841   -0.5791   -0.2907 CT        1 <0>       -0.10525
      3 C3          1.9511   -1.6968   -2.3331 CT        1 <0>        0.13688
      4 C4          0.9201   -1.8756    0.5109 CT        1 <0>        0.13688
      5 C5          2.3720   -3.3738   -0.6917 CT        1 <0>        0.33627
      6 C6          1.9137   -4.7660   -0.2764 CT        1 <0>       -0.11430
      7 O1          1.7063   -3.0321   -1.9069 OS        1 <0>       -0.45282
      8 O2          2.2079   -2.4716    0.4034 OS        1 <0>       -0.45282
      9 H1         -0.1244   -1.2087   -2.0745 HC        1 <0>        0.04994
     10 H2          0.9262    0.1938   -2.2944 HC        1 <0>        0.04994
     11 H3          1.7663    0.0234   -0.0411 HC        1 <0>        0.04994
     12 H4          0.0001    0.0002   -0.0001 HC        1 <0>        0.04994
     13 H5          1.9106   -1.6997   -3.4275 H1        1 <0>        0.05023
     14 H6          2.9510   -1.3539   -2.0421 H1        1 <0>        0.05023
     15 H7          0.7753   -1.6335    1.5692 H1        1 <0>        0.05023
     16 H8          0.1199   -2.5659    0.2222 H1        1 <0>        0.05023
     17 H9          3.4472   -3.4247   -0.8993 H2        1 <0>        0.06304
     18 H10         0.8453   -4.7580   -0.0603 HC        1 <0>        0.05223
     19 H11         2.4525   -5.0853    0.6158 HC        1 <0>        0.05223
     20 H12         2.1067   -5.4773   -1.0796 HC        1 <0>        0.05223
@<TRIPOS>BOND
     1    1    2 1
     2    1    3 1
     3    2    4 1
     4    3    7 1
     5    4    8 1
     6    5    6 1
     7    5    7 1
     8    5    8 1
     9    1    9 1
    10    1   10 1
    11    2   11 1
    12    2   12 1
    13    3   13 1
    14    3   14 1
    15    4   15 1
    16    4   16 1
    17    5   17 1
    18    6   18 1
    19    6   19 1
    20    6   20 1
@<TRIPOS>SUBSTRUCTURE
     1 <0>         1 GROUP 0 A     ****
