@<TRIPOS>MOLECULE
AlkEthOH_r297
   20    20     1     0     0
SMALL
USER_CHARGES

@<TRIPOS>ATOM
      1 C1          1.0257    0.5970    1.0563 CT        1 <0>       -0.07326
      2 C2          0.8133   -0.8732    0.6882 CT        1 <0>       -0.07014
      3 C3         -0.4043    0.3883   -0.9220 CT        1 <0>       -0.14496
      4 C4          0.2424    1.4073    0.0195 CT        1 <0>        0.14164
      5 C5         -0.5050   -0.8825   -0.0821 CT        1 <0>        0.14416
      6 C6         -0.7031   -2.1413   -0.9112 CT        1 <0>       -0.11696
      7 O1          1.1126    2.2692   -0.6953 OH        1 <0>       -0.59691
      8 O2         -1.5815   -0.7648    0.8466 OH        1 <0>       -0.59456
      9 H1          0.6088    0.7837    2.0534 HC        1 <0>        0.06108
     10 H2          2.0902    0.8505    1.0899 HC        1 <0>        0.06108
     11 H3          1.6411   -1.2107    0.0526 HC        1 <0>        0.05701
     12 H4          0.7862   -1.4992    1.5860 HC        1 <0>        0.05701
     13 H5         -1.3828    0.7478   -1.2588 HC        1 <0>        0.05453
     14 H6          0.2210    0.2354   -1.8103 HC        1 <0>        0.05453
     15 H7         -0.5154    2.0220    0.5184 H1        1 <0>        0.03847
     16 H8         -1.6568   -2.0975   -1.4397 HC        1 <0>        0.04450
     17 H9         -0.6997   -3.0212   -0.2658 HC        1 <0>        0.04450
     18 H10         0.0999   -2.2397   -1.6435 HC        1 <0>        0.04450
     19 H11         0.5666    2.7558   -1.3352 HO        1 <0>        0.39720
     20 H12        -2.3977   -0.7743    0.3237 HO        1 <0>        0.39658
@<TRIPOS>BOND
     1    1    2 1
     2    1    4 1
     3    2    5 1
     4    3    4 1
     5    3    5 1
     6    4    7 1
     7    5    6 1
     8    5    8 1
     9    1    9 1
    10    1   10 1
    11    2   11 1
    12    2   12 1
    13    3   13 1
    14    3   14 1
    15    4   15 1
    16    6   16 1
    17    6   17 1
    18    6   18 1
    19    7   19 1
    20    8   20 1
@<TRIPOS>SUBSTRUCTURE
     1 <0>         1 GROUP 0 A     ****
