@<TRIPOS>MOLECULE
AlkEthOH_r801
   17    17     1     0     0
SMALL
USER_CHARGES

@<TRIPOS>ATOM
      1 C1          0.9842   -0.2987   -0.3799 CT        1 <0>       -0.10412
      2 C2          0.3275   -1.3114   -2.4034 CT        1 <0>        0.09419
      3 C3          0.8839   -1.6550   -1.0362 CT        1 <0>        0.10883
      4 C4          1.3979    0.5822   -1.5496 CT        1 <0>        0.13491
      5 C5          0.9766    2.0309   -1.3933 CT        1 <0>       -0.09716
      6 O1          0.7785    0.0184   -2.7173 OS        1 <0>       -0.42300
      7 O2          2.1809   -2.2206   -1.1917 OH        1 <0>       -0.59066
      8 H1         -0.0000    0.0002   -0.0002 HC        1 <0>        0.06798
      9 H2          1.7091   -0.2521    0.4380 HC        1 <0>        0.06798
     10 H3          0.6601   -1.9908   -3.1934 H1        1 <0>        0.04990
     11 H4         -0.7668   -1.2829   -2.3885 H1        1 <0>        0.04990
     12 H5          0.2621   -2.3662   -0.4864 H1        1 <0>        0.04693
     13 H6          2.4831    0.5296   -1.7010 H1        1 <0>        0.05707
     14 H7         -0.1031    2.0980   -1.2416 HC        1 <0>        0.04476
     15 H8          1.2387    2.6009   -2.2875 HC        1 <0>        0.04476
     16 H9          1.4779    2.4813   -0.5335 HC        1 <0>        0.04476
     17 H10         2.0584   -3.0849   -1.6152 HO        1 <0>        0.40297
@<TRIPOS>BOND
     1    1    3 1
     2    1    4 1
     3    2    3 1
     4    2    6 1
     5    3    7 1
     6    4    5 1
     7    4    6 1
     8    1    8 1
     9    1    9 1
    10    2   10 1
    11    2   11 1
    12    3   12 1
    13    4   13 1
    14    5   14 1
    15    5   15 1
    16    5   16 1
    17    7   17 1
@<TRIPOS>SUBSTRUCTURE
     1 <0>         1 GROUP 0 A     ****
