@<TRIPOS>MOLECULE
AlkEthOH_r495
   28    28     1     0     0
SMALL
USER_CHARGES

@<TRIPOS>ATOM
      1 C1          0.6858    0.8138    1.5493 CT        1 <0>       -0.10007
      2 C2         -1.5827   -0.3375   -1.0585 CT        1 <0>       -0.10007
      3 C3          1.1142   -0.4315    0.7624 CT        1 <0>       -0.06503
      4 C4         -0.2364    0.3318   -1.3478 CT        1 <0>       -0.06503
      5 C5         -0.7501    0.7671    2.0760 CT        1 <0>        0.13207
      6 C6         -1.9962   -0.3975    0.4048 CT        1 <0>        0.13207
      7 C7          1.0461   -0.3341   -0.7866 CT        1 <0>       -0.04649
      8 C8          2.2515    0.5012   -1.2835 CT        1 <0>       -0.08869
      9 C9          1.1998   -1.7560   -1.3653 CT        1 <0>       -0.08869
     10 O1         -1.7319    0.8426    1.0491 OS        1 <0>       -0.41861
     11 H1          1.3443    0.8997    2.4231 HC        1 <0>        0.04638
     12 H2          0.8368    1.7219    0.9573 HC        1 <0>        0.04638
     13 H3         -2.3419    0.2514   -1.5913 HC        1 <0>        0.04638
     14 H4         -1.6246   -1.3411   -1.4953 HC        1 <0>        0.04638
     15 H5          2.1582   -0.6442    1.0352 HC        1 <0>        0.04058
     16 H6          0.5647   -1.3079    1.1230 HC        1 <0>        0.04058
     17 H7         -0.1426    0.3828   -2.4424 HC        1 <0>        0.04058
     18 H8         -0.2842    1.3801   -1.0265 HC        1 <0>        0.04058
     19 H9         -0.9204   -0.1085    2.7141 H1        1 <0>        0.04009
     20 H10        -0.9036    1.6467    2.7113 H1        1 <0>        0.04009
     21 H11        -3.0782   -0.5650    0.4561 H1        1 <0>        0.04009
     22 H12        -1.5384   -1.2487    0.9173 H1        1 <0>        0.04009
     23 H13         2.2060    0.5703   -2.3621 HC        1 <0>        0.03339
     24 H14         3.1653    0.0083   -0.9796 HC        1 <0>        0.03339
     25 H15         2.1959    1.4881   -0.8438 HC        1 <0>        0.03339
     26 H16         1.1543   -1.7044   -2.4467 HC        1 <0>        0.03339
     27 H17         0.3954   -2.3785   -0.9917 HC        1 <0>        0.03339
     28 H18         2.1553   -2.1625   -1.0553 HC        1 <0>        0.03339
@<TRIPOS>BOND
     1    1    3 1
     2    1    5 1
     3    2    4 1
     4    2    6 1
     5    3    7 1
     6    4    7 1
     7    5   10 1
     8    6   10 1
     9    7    8 1
    10    7    9 1
    11    1   11 1
    12    1   12 1
    13    2   13 1
    14    2   14 1
    15    3   15 1
    16    3   16 1
    17    4   17 1
    18    4   18 1
    19    5   19 1
    20    5   20 1
    21    6   21 1
    22    6   22 1
    23    8   23 1
    24    8   24 1
    25    8   25 1
    26    9   26 1
    27    9   27 1
    28    9   28 1
@<TRIPOS>SUBSTRUCTURE
     1 <0>         1 GROUP 0 A     ****
