@<TRIPOS>MOLECULE
AlkEthOH_r874
   24    24     1     0     0
SMALL
USER_CHARGES

@<TRIPOS>ATOM
      1 C1          0.9112   -0.5006    0.3499 CT        1 <0>       -0.07599
      2 C2          2.1233    0.0981   -0.3509 CT        1 <0>       -0.07595
      3 C3          1.0189   -0.3609    1.8645 CT        1 <0>       -0.07376
      4 C4          2.3406    1.5514    0.0569 CT        1 <0>       -0.07376
      5 C5          1.2291    1.1007    2.2964 CT        1 <0>       -0.06048
      6 C6          2.4602    1.7119    1.5824 CT        1 <0>       -0.06048
      7 C7          1.3430    1.1665    3.8221 CT        1 <0>       -0.09054
      8 C8          2.6610    3.1915    1.9220 CT        1 <0>       -0.09054
      9 H1          0.0000   -0.0001   -0.0002 HC        1 <0>        0.03814
     10 H2          0.8166   -1.5592    0.0830 HC        1 <0>        0.03814
     11 H3          3.0169   -0.4886   -0.1050 HC        1 <0>        0.03814
     12 H4          1.9894    0.0360   -1.4367 HC        1 <0>        0.03814
     13 H5          0.1065   -0.7587    2.3252 HC        1 <0>        0.03870
     14 H6          1.8513   -0.9787    2.2258 HC        1 <0>        0.03870
     15 H7          3.2488    1.9267   -0.4302 HC        1 <0>        0.03870
     16 H8          1.5066    2.1597   -0.3166 HC        1 <0>        0.03870
     17 H9          0.3364    1.6709    2.0045 HC        1 <0>        0.04801
     18 H10         3.3587    1.1706    1.9094 HC        1 <0>        0.04801
     19 H11         2.2191    0.6104    4.1471 HC        1 <0>        0.03302
     20 H12         0.4538    0.7329    4.2735 HC        1 <0>        0.03302
     21 H13         1.4374    2.2031    4.1367 HC        1 <0>        0.03302
     22 H14         1.7874    3.7593    1.6110 HC        1 <0>        0.03302
     23 H15         3.5389    3.5691    1.4032 HC        1 <0>        0.03302
     24 H16         2.8004    3.3042    2.9946 HC        1 <0>        0.03302
@<TRIPOS>BOND
     1    1    2 1
     2    1    3 1
     3    2    4 1
     4    3    5 1
     5    4    6 1
     6    5    6 1
     7    5    7 1
     8    6    8 1
     9    1    9 1
    10    1   10 1
    11    2   11 1
    12    2   12 1
    13    3   13 1
    14    3   14 1
    15    4   15 1
    16    4   16 1
    17    5   17 1
    18    6   18 1
    19    7   19 1
    20    7   20 1
    21    7   21 1
    22    8   22 1
    23    8   23 1
    24    8   24 1
@<TRIPOS>SUBSTRUCTURE
     1 <0>         1 GROUP 0 A     ****
