@<TRIPOS>MOLECULE
AlkEthOH_r194
   20    20     1     0     0
SMALL
USER_CHARGES

@<TRIPOS>ATOM
      1 C1          1.3998    0.8549    0.4615 CT        1 <0>       -0.14793
      2 C2          1.7034   -0.4788   -0.1909 CT        1 <0>        0.13000
      3 C3         -0.0773    0.7338    0.7627 CT        1 <0>        0.11600
      4 C4         -0.5954   -0.0751   -0.4341 CT        1 <0>        0.15398
      5 C5         -0.9391    0.8379   -1.6181 CT        1 <0>       -0.09492
      6 C6         -1.7849   -0.9804   -0.1198 CT        1 <0>       -0.09492
      7 O1          0.5057   -0.9125   -0.8497 OS        1 <0>       -0.42008
      8 O2         -0.2121    0.0203    1.9885 OH        1 <0>       -0.58516
      9 H1          2.0260    1.0257    1.3420 HC        1 <0>        0.05872
     10 H2          1.5772    1.6653   -0.2542 HC        1 <0>        0.05872
     11 H3          2.5185   -0.4130   -0.9171 H1        1 <0>        0.04940
     12 H4          1.9650   -1.2356    0.5563 H1        1 <0>        0.04940
     13 H5         -0.5636    1.7069    0.8822 H1        1 <0>        0.04928
     14 H6         -1.3019    0.2357   -2.4465 HC        1 <0>        0.04611
     15 H7         -0.0499    1.3804   -1.9271 HC        1 <0>        0.04611
     16 H8         -1.7088    1.5441   -1.3195 HC        1 <0>        0.04611
     17 H9         -2.0886   -1.5157   -1.0179 HC        1 <0>        0.04611
     18 H10        -2.6203   -0.3809    0.2379 HC        1 <0>        0.04611
     19 H11        -1.5076   -1.7005    0.6483 HC        1 <0>        0.04611
     20 H12         0.2502    0.5407    2.6638 HO        1 <0>        0.40085
@<TRIPOS>BOND
     1    1    2 1
     2    1    3 1
     3    2    7 1
     4    3    4 1
     5    3    8 1
     6    4    5 1
     7    4    6 1
     8    4    7 1
     9    1    9 1
    10    1   10 1
    11    2   11 1
    12    2   12 1
    13    3   13 1
    14    5   14 1
    15    5   15 1
    16    5   16 1
    17    6   17 1
    18    6   18 1
    19    6   19 1
    20    8   20 1
@<TRIPOS>SUBSTRUCTURE
     1 <0>         1 GROUP 0 A     ****
