@<TRIPOS>MOLECULE
AlkEthOH_r244
   30    30     1     0     0
SMALL
USER_CHARGES

@<TRIPOS>ATOM
      1 C1          0.1195   -0.2360    1.7557 CT        1 <0>       -0.13779
      2 C2         -0.9079   -0.2678   -0.6584 CT        1 <0>       -0.08410
      3 C3          1.2548   -1.2222    1.4732 CT        1 <0>        0.14840
      4 C4          2.1111   -0.2352   -0.5314 CT        1 <0>        0.32482
      5 C5         -1.1394   -0.3653    0.8722 CT        1 <0>        0.17125
      6 C6          0.0204    0.8569   -1.1976 CT        1 <0>        0.16851
      7 C7         -1.8776   -1.6778    1.1789 CT        1 <0>       -0.12640
      8 C8          0.2241    0.6704   -2.7116 CT        1 <0>       -0.10396
      9 C9         -0.6163    2.2390   -0.9789 CT        1 <0>       -0.10396
     10 O1          1.5532   -1.3867    0.0927 OS        1 <0>       -0.45204
     11 O2          1.2891    0.9271   -0.5350 OS        1 <0>       -0.44910
     12 O3         -2.0309    0.6974    1.2402 OH        1 <0>       -0.60371
     13 H1         -0.1674   -0.3348    2.8120 HC        1 <0>        0.05907
     14 H2          0.4985    0.7915    1.6955 HC        1 <0>        0.05907
     15 H3         -0.5281   -1.2338   -1.0143 HC        1 <0>        0.06292
     16 H4         -1.8855   -0.1535   -1.1494 HC        1 <0>        0.06292
     17 H5          2.1612   -0.9267    2.0146 H1        1 <0>        0.04395
     18 H6          0.9732   -2.2100    1.8532 H1        1 <0>        0.04395
     19 H7          3.0455    0.0225   -0.0203 H2        1 <0>        0.06039
     20 H8          2.3845   -0.5007   -1.5569 H2        1 <0>        0.06039
     21 H9         -2.7587   -1.7508    0.5489 HC        1 <0>        0.04240
     22 H10        -2.1750   -1.6877    2.2230 HC        1 <0>        0.04240
     23 H11        -1.2176   -2.5167    0.9803 HC        1 <0>        0.04240
     24 H12         0.8721    1.4565   -3.0847 HC        1 <0>        0.04563
     25 H13        -0.7378    0.7218   -3.2108 HC        1 <0>        0.04563
     26 H14         0.6799   -0.2970   -2.8946 HC        1 <0>        0.04563
     27 H15         0.0493    3.0058   -1.3627 HC        1 <0>        0.04563
     28 H16        -0.7786    2.3956    0.0828 HC        1 <0>        0.04563
     29 H17        -1.5655    2.2843   -1.5035 HC        1 <0>        0.04563
     30 H18        -2.2286    0.5666    2.1777 HO        1 <0>        0.39444
@<TRIPOS>BOND
     1    1    3 1
     2    1    5 1
     3    2    5 1
     4    2    6 1
     5    3   10 1
     6    4   10 1
     7    4   11 1
     8    5    7 1
     9    5   12 1
    10    6    8 1
    11    6    9 1
    12    6   11 1
    13    1   13 1
    14    1   14 1
    15    2   15 1
    16    2   16 1
    17    3   17 1
    18    3   18 1
    19    4   19 1
    20    4   20 1
    21    7   21 1
    22    7   22 1
    23    7   23 1
    24    8   24 1
    25    8   25 1
    26    8   26 1
    27    9   27 1
    28    9   28 1
    29    9   29 1
    30   12   30 1
@<TRIPOS>SUBSTRUCTURE
     1 <0>         1 GROUP 0 A     ****
