@<TRIPOS>MOLECULE
AlkEthOH_r281
   32    32     1     0     0
SMALL
USER_CHARGES

@<TRIPOS>ATOM
      1 C1         -0.7861    0.8946   -0.0649 CT        1 <0>       -0.08886
      2 C2          0.3588   -2.4071   -0.5725 CT        1 <0>        0.11028
      3 C3         -0.5910   -2.0266    0.5536 CT        1 <0>        0.09700
      4 C4          1.2518   -0.2684   -1.1737 CT        1 <0>        0.13302
      5 C5          0.4132    1.0206   -1.0549 CT        1 <0>       -0.06198
      6 C6         -0.5964    0.2833    1.3531 CT        1 <0>        0.15971
      7 C7          1.3434    2.1913   -0.6856 CT        1 <0>       -0.08910
      8 C8         -0.1889    1.3503   -2.4457 CT        1 <0>       -0.08910
      9 C9         -1.9675    0.2064    2.0573 CT        1 <0>       -0.10341
     10 C10         0.3147    1.1482    2.2348 CT        1 <0>       -0.10341
     11 O1          0.4390   -1.3777   -1.5554 OS        1 <0>       -0.42150
     12 O2          0.0091   -1.0149    1.3539 OS        1 <0>       -0.42683
     13 H1         -1.2366    1.8912    0.0530 HC        1 <0>        0.04803
     14 H2         -1.5600    0.3045   -0.5746 HC        1 <0>        0.04803
     15 H3          1.3611   -2.6479   -0.1996 H1        1 <0>        0.05357
     16 H4         -0.0304   -3.2964   -1.0789 H1        1 <0>        0.05357
     17 H5         -1.5667   -1.7338    0.1575 H1        1 <0>        0.04935
     18 H6         -0.7413   -2.8966    1.2009 H1        1 <0>        0.04935
     19 H7          2.0010   -0.1461   -1.9657 H1        1 <0>        0.05069
     20 H8          1.8184   -0.4663   -0.2561 H1        1 <0>        0.05069
     21 H9          2.1582    2.2378   -1.3997 HC        1 <0>        0.03677
     22 H10         1.7385    2.0314    0.3115 HC        1 <0>        0.03677
     23 H11         0.7789    3.1169   -0.7125 HC        1 <0>        0.03677
     24 H12         0.6186    1.4446   -3.1582 HC        1 <0>        0.03677
     25 H13        -0.7358    2.2799   -2.3737 HC        1 <0>        0.03677
     26 H14        -0.8517    0.5466   -2.7344 HC        1 <0>        0.03677
     27 H15        -1.8340   -0.2194    3.0446 HC        1 <0>        0.04338
     28 H16        -2.6305   -0.4195    1.4720 HC        1 <0>        0.04338
     29 H17        -2.3792    1.2054    2.1388 HC        1 <0>        0.04338
     30 H18         0.4183    0.6847    3.2117 HC        1 <0>        0.04338
     31 H19        -0.1227    2.1361    2.3469 HC        1 <0>        0.04338
     32 H20         1.2921    1.2349    1.7690 HC        1 <0>        0.04338
@<TRIPOS>BOND
     1    1    5 1
     2    1    6 1
     3    2    3 1
     4    2   11 1
     5    3   12 1
     6    4    5 1
     7    4   11 1
     8    5    7 1
     9    5    8 1
    10    6    9 1
    11    6   10 1
    12    6   12 1
    13    1   13 1
    14    1   14 1
    15    2   15 1
    16    2   16 1
    17    3   17 1
    18    3   18 1
    19    4   19 1
    20    4   20 1
    21    7   21 1
    22    7   22 1
    23    7   23 1
    24    8   24 1
    25    8   25 1
    26    8   26 1
    27    9   27 1
    28    9   28 1
    29    9   29 1
    30   10   30 1
    31   10   31 1
    32   10   32 1
@<TRIPOS>SUBSTRUCTURE
     1 <0>         1 GROUP 0 A     ****
