@<TRIPOS>MOLECULE
AlkEthOH_r100
   17    17     1     0     0
SMALL
USER_CHARGES

@<TRIPOS>ATOM
      1 C1         -0.5869    0.5826   -0.7210 CT        1 <0>       -0.10514
      2 C2         -2.0683    0.2786   -0.4897 CT        1 <0>       -0.10514
      3 C3         -0.0953    0.2684   -2.1297 CT        1 <0>        0.13636
      4 C4         -2.4937   -1.1230   -0.9130 CT        1 <0>        0.13636
      5 C5         -1.2464   -1.6856   -2.8656 CT        1 <0>        0.32784
      6 O1         -0.0518   -1.1420   -2.3118 OS        1 <0>       -0.45521
      7 O2         -2.4800   -1.2126   -2.3328 OS        1 <0>       -0.45521
      8 H1         -0.4093    1.6419   -0.5031 HC        1 <0>        0.04992
      9 H2         -0.0005   -0.0004   -0.0000 HC        1 <0>        0.04992
     10 H3         -2.2916    0.4187    0.5743 HC        1 <0>        0.04992
     11 H4         -2.6612    1.0155   -1.0464 HC        1 <0>        0.04992
     12 H5         -0.6963    0.7600   -2.9037 H1        1 <0>        0.05116
     13 H6          0.9323    0.6326   -2.2311 H1        1 <0>        0.05116
     14 H7         -1.8813   -1.9057   -0.4501 H1        1 <0>        0.05116
     15 H8         -3.5291   -1.2856   -0.5953 H1        1 <0>        0.05116
     16 H9         -1.2515   -1.4876   -3.9427 H2        1 <0>        0.05791
     17 H10        -1.2073   -2.7727   -2.7387 H2        1 <0>        0.05791
@<TRIPOS>BOND
     1    1    2 1
     2    1    3 1
     3    2    4 1
     4    3    6 1
     5    4    7 1
     6    5    6 1
     7    5    7 1
     8    1    8 1
     9    1    9 1
    10    2   10 1
    11    2   11 1
    12    3   12 1
    13    3   13 1
    14    4   14 1
    15    4   15 1
    16    5   16 1
    17    5   17 1
@<TRIPOS>SUBSTRUCTURE
     1 <0>         1 GROUP 0 A     ****
