@<TRIPOS>MOLECULE
AlkEthOH_r986
   20    20     1     0     0
SMALL
USER_CHARGES

@<TRIPOS>ATOM
      1 C1          0.6548    0.8605    1.4617 CT        1 <0>       -0.10421
      2 C2         -0.7127    0.1940    1.2886 CT        1 <0>       -0.10048
      3 C3          1.2588    1.4030    0.1716 CT        1 <0>        0.13693
      4 C4          0.6656   -0.1037   -1.5763 CT        1 <0>        0.33044
      5 C5         -0.7619   -0.8663    0.1828 CT        1 <0>        0.14826
      6 C6         -2.1033   -1.5917    0.2065 CT        1 <0>       -0.09845
      7 O1          1.6647    0.3170   -0.6527 OS        1 <0>       -0.45671
      8 O2         -0.6660   -0.2127   -1.0823 OS        1 <0>       -0.45529
      9 H1          0.5548    1.6778    2.1853 HC        1 <0>        0.05028
     10 H2          1.3427    0.1240    1.8959 HC        1 <0>        0.05028
     11 H3         -0.9991   -0.2533    2.2482 HC        1 <0>        0.04931
     12 H4         -1.4459    0.9807    1.0670 HC        1 <0>        0.04931
     13 H5          0.5804    2.0836   -0.3561 H1        1 <0>        0.05046
     14 H6          2.1636    1.9680    0.4192 H1        1 <0>        0.05046
     15 H7          0.6521    0.5986   -2.4165 H2        1 <0>        0.05680
     16 H8          0.9692   -1.0769   -1.9761 H2        1 <0>        0.05680
     17 H9          0.0377   -1.6076    0.3050 H1        1 <0>        0.05375
     18 H10        -2.9153   -0.8751    0.0866 HC        1 <0>        0.04402
     19 H11        -2.2272   -2.1126    1.1554 HC        1 <0>        0.04402
     20 H12        -2.1476   -2.3172   -0.6052 HC        1 <0>        0.04402
@<TRIPOS>BOND
     1    1    2 1
     2    1    3 1
     3    2    5 1
     4    3    7 1
     5    4    7 1
     6    4    8 1
     7    5    6 1
     8    5    8 1
     9    1    9 1
    10    1   10 1
    11    2   11 1
    12    2   12 1
    13    3   13 1
    14    3   14 1
    15    4   15 1
    16    4   16 1
    17    5   17 1
    18    6   18 1
    19    6   19 1
    20    6   20 1
@<TRIPOS>SUBSTRUCTURE
     1 <0>         1 GROUP 0 A     ****
