@<TRIPOS>MOLECULE
AlkEthOH_r543
   23    23     1     0     0
SMALL
USER_CHARGES

@<TRIPOS>ATOM
      1 C1          0.7971   -0.2788    1.3214 CT        1 <0>       -0.10887
      2 C2         -0.1378    0.8006    1.8580 CT        1 <0>        0.12460
      3 C3         -1.5429    0.6787   -0.0416 CT        1 <0>        0.09341
      4 C4         -0.6918   -0.4075   -0.6965 CT        1 <0>        0.11417
      5 C5          0.7840   -0.3538   -0.2228 CT        1 <0>       -0.04389
      6 C6          1.5328   -1.6267   -0.6658 CT        1 <0>       -0.08525
      7 C7          1.5311    0.8559   -0.8231 CT        1 <0>       -0.08525
      8 O1         -1.4658    0.6042    1.3784 OS        1 <0>       -0.40885
      9 O2         -0.8067   -0.2726   -2.1079 OH        1 <0>       -0.59239
     10 H1          1.8134   -0.1107    1.6966 HC        1 <0>        0.05351
     11 H2          0.4632   -1.2452    1.7226 HC        1 <0>        0.05351
     12 H3         -0.1704    0.7469    2.9510 H1        1 <0>        0.04972
     13 H4          0.2029    1.8076    1.5939 H1        1 <0>        0.04972
     14 H5         -1.2640    1.6832   -0.3813 H1        1 <0>        0.05210
     15 H6         -2.5924    0.5471   -0.3288 H1        1 <0>        0.05210
     16 H7         -1.1194   -1.3799   -0.4184 H1        1 <0>        0.04318
     17 H8          1.5261   -1.6834   -1.7483 HC        1 <0>        0.03994
     18 H9          1.0345   -2.4944   -0.2489 HC        1 <0>        0.03994
     19 H10         2.5543   -1.5806   -0.3060 HC        1 <0>        0.03994
     20 H11         1.5097    0.7833   -1.9039 HC        1 <0>        0.03994
     21 H12         2.5563    0.8470   -0.4728 HC        1 <0>        0.03994
     22 H13         1.0399    1.7676   -0.5046 HC        1 <0>        0.03994
     23 H14        -1.7468   -0.3815   -2.3229 HO        1 <0>        0.39884
@<TRIPOS>BOND
     1    1    2 1
     2    1    5 1
     3    2    8 1
     4    3    4 1
     5    3    8 1
     6    4    5 1
     7    4    9 1
     8    5    6 1
     9    5    7 1
    10    1   10 1
    11    1   11 1
    12    2   12 1
    13    2   13 1
    14    3   14 1
    15    3   15 1
    16    4   16 1
    17    6   17 1
    18    6   18 1
    19    6   19 1
    20    7   20 1
    21    7   21 1
    22    7   22 1
    23    9   23 1
@<TRIPOS>SUBSTRUCTURE
     1 <0>         1 GROUP 0 A     ****
