@<TRIPOS>MOLECULE
AlkEthOH_r86
   13    13     1     0     0
SMALL
USER_CHARGES

@<TRIPOS>ATOM
      1 C1         -0.5413    0.3724   -1.0757 CT        1 <0>       -0.11012
      2 C2         -0.5364   -1.0227   -0.5053 CT        1 <0>       -0.11007
      3 C3          0.6038    1.0191   -0.3271 CT        1 <0>        0.12513
      4 C4         -0.1835   -0.7655    0.9437 CT        1 <0>        0.12513
      5 O1          0.6574    0.3967    0.9644 OS        1 <0>       -0.42775
      6 H1         -0.4155    0.4056   -2.1609 HC        1 <0>        0.05372
      7 H2         -1.4836    0.8729   -0.8229 HC        1 <0>        0.05372
      8 H3         -1.4848   -1.5521   -0.6270 HC        1 <0>        0.05372
      9 H4          0.2527   -1.6156   -0.9829 HC        1 <0>        0.05372
     10 H5          1.5599    0.8326   -0.8277 H1        1 <0>        0.04570
     11 H6          0.4748    2.0988   -0.2114 H1        1 <0>        0.04570
     12 H7         -1.0772   -0.5410    1.5357 H1        1 <0>        0.04570
     13 H8          0.3389   -1.6079    1.4054 H1        1 <0>        0.04570
@<TRIPOS>BOND
     1    1    2 1
     2    1    3 1
     3    2    4 1
     4    3    5 1
     5    4    5 1
     6    1    6 1
     7    1    7 1
     8    2    8 1
     9    2    9 1
    10    3   10 1
    11    3   11 1
    12    4   12 1
    13    4   13 1
@<TRIPOS>SUBSTRUCTURE
     1 <0>         1 GROUP 0 A     ****
