@<TRIPOS>MOLECULE
AlkEthOH_r656
   25    25     1     0     0
SMALL
USER_CHARGES

@<TRIPOS>ATOM
      1 C1         -0.4065    1.7950   -1.5855 CT        1 <0>        0.11201
      2 C2         -0.1209    0.4295   -2.1965 CT        1 <0>        0.11201
      3 C3         -0.0154    1.2984    0.7235 CT        1 <0>        0.10400
      4 C4          0.5971   -1.3019   -0.7182 CT        1 <0>        0.53331
      5 C5         -0.3360   -0.1126    1.2491 CT        1 <0>        0.15528
      6 C6         -1.7138   -0.1001    1.9358 CT        1 <0>       -0.10044
      7 C7          0.7107   -0.5418    2.2846 CT        1 <0>       -0.10044
      8 O1         -0.9590    1.6931   -0.2735 OS        1 <0>       -0.41140
      9 O2          0.9752   -0.1758   -1.5132 OS        1 <0>       -0.49478
     10 O3         -0.4734   -1.0852    0.2055 OS        1 <0>       -0.43491
     11 O4          1.7420   -1.8987   -0.1116 OH        1 <0>       -0.61319
     12 H1          0.4933    2.4206   -1.5566 H1        1 <0>        0.05511
     13 H2         -1.1497    2.3116   -2.2014 H1        1 <0>        0.05511
     14 H3         -1.0131   -0.2069   -2.1798 H1        1 <0>        0.05512
     15 H4          0.1830    0.5596   -3.2401 H1        1 <0>        0.05512
     16 H5         -0.0974    2.0227    1.5430 H1        1 <0>        0.05680
     17 H6          1.0153    1.3746    0.3583 H1        1 <0>        0.05680
     18 H7          0.2149   -2.0528   -1.4202 H3        1 <0>        0.08209
     19 H8         -1.9375   -1.0951    2.3053 HC        1 <0>        0.04852
     20 H9         -2.4680    0.2017    1.2171 HC        1 <0>        0.04852
     21 H10        -1.6940    0.6017    2.7627 HC        1 <0>        0.04852
     22 H11         0.4742   -1.5382    2.6479 HC        1 <0>        0.04852
     23 H12         0.7057    0.1572    3.1165 HC        1 <0>        0.04852
     24 H13         1.6949   -0.5489    1.8240 HC        1 <0>        0.04852
     25 H14         2.3232   -2.1768   -0.8358 HO        1 <0>        0.43128
@<TRIPOS>BOND
     1    1    2 1
     2    1    8 1
     3    2    9 1
     4    3    5 1
     5    3    8 1
     6    4    9 1
     7    4   10 1
     8    4   11 1
     9    5    6 1
    10    5    7 1
    11    5   10 1
    12    1   12 1
    13    1   13 1
    14    2   14 1
    15    2   15 1
    16    3   16 1
    17    3   17 1
    18    4   18 1
    19    6   19 1
    20    6   20 1
    21    6   21 1
    22    7   22 1
    23    7   23 1
    24    7   24 1
    25   11   25 1
@<TRIPOS>SUBSTRUCTURE
     1 <0>         1 GROUP 0 A     ****
