@<TRIPOS>MOLECULE
AlkEthOH_r182
    8     8     1     0     0
SMALL
USER_CHARGES

@<TRIPOS>ATOM
      1 C1         -0.0057   -0.3871   -1.0208 CT        1 <0>        0.33169
      2 C2         -0.4274   -2.3114   -1.4981 CT        1 <0>        0.33173
      3 O1         -1.1918   -1.1156   -1.3404 OS        1 <0>       -0.46687
      4 O2          0.7580   -1.5843   -1.1732 OS        1 <0>       -0.46687
      5 H1          0.2414    0.3786   -1.7587 H2        1 <0>        0.06758
      6 H2          0.0003   -0.0006    0.0005 H2        1 <0>        0.06758
      7 H3         -0.6742   -3.0805   -0.7634 H2        1 <0>        0.06758
      8 H4         -0.4321   -2.6945   -2.5203 H2        1 <0>        0.06758
@<TRIPOS>BOND
     1    1    3 1
     2    1    4 1
     3    2    3 1
     4    2    4 1
     5    1    5 1
     6    1    6 1
     7    2    7 1
     8    2    8 1
@<TRIPOS>SUBSTRUCTURE
     1 <0>         1 GROUP 0 A     ****
