@<TRIPOS>MOLECULE
AlkEthOH_r875
   22    22     1     0     0
SMALL
USER_CHARGES

@<TRIPOS>ATOM
      1 C1         -0.8214    0.5207   -0.5048 CT        1 <0>       -0.07786
      2 C2         -1.9659   -0.4541   -0.7603 CT        1 <0>       -0.07290
      3 C3         -0.3131    1.1439   -1.8025 CT        1 <0>       -0.07633
      4 C4         -3.0961    0.2074   -1.5388 CT        1 <0>       -0.11210
      5 C5         -1.4432    1.8171   -2.5935 CT        1 <0>       -0.05902
      6 C6         -2.5995    0.8336   -2.8430 CT        1 <0>        0.14340
      7 C7         -0.9041    2.3894   -3.9072 CT        1 <0>       -0.08787
      8 O1         -3.6813    1.5237   -3.4635 OH        1 <0>       -0.60029
      9 H1         -1.1608    1.3140    0.1725 HC        1 <0>        0.04170
     10 H2          0.0001   -0.0002   -0.0002 HC        1 <0>        0.04170
     11 H3         -1.5920   -1.3191   -1.3217 HC        1 <0>        0.04018
     12 H4         -2.3475   -0.8334    0.1943 HC        1 <0>        0.04018
     13 H5          0.4672    1.8775   -1.5668 HC        1 <0>        0.04153
     14 H6          0.1573    0.3646   -2.4158 HC        1 <0>        0.04153
     15 H7         -3.8816   -0.5266   -1.7566 HC        1 <0>        0.04588
     16 H8         -3.5747    0.9768   -0.9185 HC        1 <0>        0.04588
     17 H9         -1.8282    2.6641   -2.0108 HC        1 <0>        0.06149
     18 H10        -2.2735    0.0388   -3.5264 H1        1 <0>        0.03239
     19 H11        -0.5097    1.5837   -4.5218 HC        1 <0>        0.03792
     20 H12        -0.1107    3.1025   -3.6963 HC        1 <0>        0.03792
     21 H13        -1.7062    2.8914   -4.4432 HC        1 <0>        0.03792
     22 H14        -4.3704    0.8625   -3.6321 HO        1 <0>        0.39675
@<TRIPOS>BOND
     1    1    2 1
     2    1    3 1
     3    2    4 1
     4    3    5 1
     5    4    6 1
     6    5    6 1
     7    5    7 1
     8    6    8 1
     9    1    9 1
    10    1   10 1
    11    2   11 1
    12    2   12 1
    13    3   13 1
    14    3   14 1
    15    4   15 1
    16    4   16 1
    17    5   17 1
    18    6   18 1
    19    7   19 1
    20    7   20 1
    21    7   21 1
    22    8   22 1
@<TRIPOS>SUBSTRUCTURE
     1 <0>         1 GROUP 0 A     ****
