@<TRIPOS>MOLECULE
AlkEthOH_r373
   32    32     1     0     0
SMALL
USER_CHARGES

@<TRIPOS>ATOM
      1 C1         -2.2513    1.4141   -0.0460 CT        1 <0>       -0.06837
      2 C2         -2.4500   -0.0079    0.4794 CT        1 <0>       -0.06829
      3 C3         -0.8220    1.9575   -0.0881 CT        1 <0>       -0.07092
      4 C4         -1.8372   -1.1068   -0.3864 CT        1 <0>       -0.07092
      5 C5          0.0908    1.2528   -1.0928 CT        1 <0>       -0.09174
      6 C6         -0.5189   -1.7131    0.1059 CT        1 <0>       -0.09174
      7 C7          1.1301    0.2418   -0.5429 CT        1 <0>        0.17714
      8 C8          0.6489   -0.7943    0.5278 CT        1 <0>        0.17714
      9 C9          1.7839   -0.4485   -1.7571 CT        1 <0>       -0.12969
     10 C10         1.8057   -1.7151    0.9890 CT        1 <0>       -0.12969
     11 O1          2.1634    1.0266    0.0884 OH        1 <0>       -0.58499
     12 O2          0.2564   -0.1071    1.7227 OH        1 <0>       -0.58499
     13 H1         -2.6923    1.4889   -1.0484 HC        1 <0>        0.03603
     14 H2         -2.8430    2.0870    0.5884 HC        1 <0>        0.03603
     15 H3         -2.1377   -0.0886    1.5246 HC        1 <0>        0.03603
     16 H4         -3.5357   -0.1772    0.4955 HC        1 <0>        0.03603
     17 H5         -0.9083    3.0045   -0.4118 HC        1 <0>        0.04562
     18 H6         -0.3857    2.0134    0.9119 HC        1 <0>        0.04562
     19 H7         -2.5576   -1.9369   -0.4150 HC        1 <0>        0.04562
     20 H8         -1.7529   -0.7925   -1.4305 HC        1 <0>        0.04562
     21 H9         -0.5046    0.8067   -1.8958 HC        1 <0>        0.03847
     22 H10         0.6614    2.0527   -1.5898 HC        1 <0>        0.03847
     23 H11        -0.7814   -2.3368    0.9733 HC        1 <0>        0.03847
     24 H12        -0.1716   -2.4104   -0.6672 HC        1 <0>        0.03847
     25 H13         2.5178   -1.1637   -1.4046 HC        1 <0>        0.04480
     26 H14         2.2663    0.3013   -2.3730 HC        1 <0>        0.04480
     27 H15         1.0176   -0.9583   -2.3291 HC        1 <0>        0.04480
     28 H16         2.6409   -1.0983    1.2917 HC        1 <0>        0.04480
     29 H17         2.0920   -2.3526    0.1636 HC        1 <0>        0.04480
     30 H18         1.4620   -2.3136    1.8218 HC        1 <0>        0.04480
     31 H19         2.5224    1.5899   -0.6079 HO        1 <0>        0.39389
     32 H20         0.0815   -0.7935    2.3818 HO        1 <0>        0.39389
@<TRIPOS>BOND
     1    1    2 1
     2    1    3 1
     3    2    4 1
     4    3    5 1
     5    4    6 1
     6    5    7 1
     7    6    8 1
     8    7    8 1
     9    7    9 1
    10    7   11 1
    11    8   10 1
    12    8   12 1
    13    1   13 1
    14    1   14 1
    15    2   15 1
    16    2   16 1
    17    3   17 1
    18    3   18 1
    19    4   19 1
    20    4   20 1
    21    5   21 1
    22    5   22 1
    23    6   23 1
    24    6   24 1
    25    9   25 1
    26    9   26 1
    27    9   27 1
    28   10   28 1
    29   10   29 1
    30   10   30 1
    31   11   31 1
    32   12   32 1
@<TRIPOS>SUBSTRUCTURE
     1 <0>         1 GROUP 0 A     ****
