@<TRIPOS>MOLECULE
AlkEthOH_r256
   22    22     1     0     0
SMALL
USER_CHARGES

@<TRIPOS>ATOM
      1 C1          0.5385    0.1679    1.0258 CT        1 <0>       -0.12592
      2 C2         -0.7755    0.6047    0.3505 CT        1 <0>        0.13368
      3 C3          0.8097   -0.5940   -0.2855 CT        1 <0>        0.13368
      4 C4         -2.0428    0.0496    0.9862 CT        1 <0>       -0.09466
      5 C5         -0.8785    2.0920    0.0414 CT        1 <0>       -0.09466
      6 C6          0.8209   -2.1116   -0.1635 CT        1 <0>       -0.09466
      7 C7          1.9830   -0.0758   -1.1058 CT        1 <0>       -0.09466
      8 O1         -0.4473   -0.1392   -0.8526 OS        1 <0>       -0.42058
      9 H1          1.2405    0.9762    1.2539 HC        1 <0>        0.06075
     10 H2          0.4251   -0.4576    1.9168 HC        1 <0>        0.06075
     11 H3         -2.9198    0.4084    0.4468 HC        1 <0>        0.04469
     12 H4         -2.1116    0.3718    2.0256 HC        1 <0>        0.04469
     13 H5         -2.0303   -1.0403    0.9545 HC        1 <0>        0.04469
     14 H6         -1.8358    2.3099   -0.4329 HC        1 <0>        0.04469
     15 H7         -0.0749    2.3902   -0.6325 HC        1 <0>        0.04469
     16 H8         -0.8006    2.6713    0.9619 HC        1 <0>        0.04469
     17 H9          1.0194   -2.5634   -1.1358 HC        1 <0>        0.04469
     18 H10        -0.1450   -2.4646    0.1990 HC        1 <0>        0.04469
     19 H11         1.5964   -2.4247    0.5362 HC        1 <0>        0.04469
     20 H12         2.0989   -0.6725   -2.0110 HC        1 <0>        0.04469
     21 H13         2.9025   -0.1367   -0.5229 HC        1 <0>        0.04469
     22 H14         1.8120    0.9636   -1.3877 HC        1 <0>        0.04469
@<TRIPOS>BOND
     1    1    2 1
     2    1    3 1
     3    2    4 1
     4    2    5 1
     5    2    8 1
     6    3    6 1
     7    3    7 1
     8    3    8 1
     9    1    9 1
    10    1   10 1
    11    4   11 1
    12    4   12 1
    13    4   13 1
    14    5   14 1
    15    5   15 1
    16    5   16 1
    17    6   17 1
    18    6   18 1
    19    6   19 1
    20    7   20 1
    21    7   21 1
    22    7   22 1
@<TRIPOS>SUBSTRUCTURE
     1 <0>         1 GROUP 0 A     ****
