@<TRIPOS>MOLECULE
AlkEthOH_r322
   23    23     1     0     0
SMALL
USER_CHARGES

@<TRIPOS>ATOM
      1 C1          0.0346    1.3714   -1.4789 CT        1 <0>       -0.07106
      2 C2          1.2234    0.5439   -0.9788 CT        1 <0>       -0.10339
      3 C3         -1.1840    0.9483   -0.6506 CT        1 <0>       -0.10339
      4 C4          0.7517   -0.0832    0.3390 CT        1 <0>        0.15840
      5 C5         -0.7519   -0.3236    0.0911 CT        1 <0>        0.15840
      6 C6          1.5493   -1.3303    0.7042 CT        1 <0>       -0.10883
      7 C7         -1.5799   -0.5540    1.3508 CT        1 <0>       -0.10883
      8 O1          0.9171    0.8820    1.3815 OH        1 <0>       -0.60067
      9 O2         -0.9603   -1.4544   -0.7584 OH        1 <0>       -0.60067
     10 H1          0.2222    2.4439   -1.3563 HC        1 <0>        0.04247
     11 H2         -0.1324    1.1906   -2.5465 HC        1 <0>        0.04247
     12 H3          1.4582   -0.2277   -1.7221 HC        1 <0>        0.05205
     13 H4          2.1093    1.1753   -0.8520 HC        1 <0>        0.05205
     14 H5         -1.4315    1.7515    0.0543 HC        1 <0>        0.05205
     15 H6         -2.0529    0.7843   -1.2971 HC        1 <0>        0.05205
     16 H7          1.1834   -1.7431    1.6438 HC        1 <0>        0.04759
     17 H8          2.6034   -1.0777    0.8142 HC        1 <0>        0.04759
     18 H9          1.4437   -2.0809   -0.0784 HC        1 <0>        0.04759
     19 H10        -1.2482   -1.4627    1.8522 HC        1 <0>        0.04759
     20 H11        -2.6326   -0.6570    1.0896 HC        1 <0>        0.04759
     21 H12        -1.4637    0.2892    2.0310 HC        1 <0>        0.04759
     22 H13         1.8614    1.0945    1.4064 HO        1 <0>        0.40068
     23 H14        -1.9071   -1.4709   -0.9601 HO        1 <0>        0.40068
@<TRIPOS>BOND
     1    1    2 1
     2    1    3 1
     3    2    4 1
     4    3    5 1
     5    4    5 1
     6    4    6 1
     7    4    8 1
     8    5    7 1
     9    5    9 1
    10    1   10 1
    11    1   11 1
    12    2   12 1
    13    2   13 1
    14    3   14 1
    15    3   15 1
    16    6   16 1
    17    6   17 1
    18    6   18 1
    19    7   19 1
    20    7   20 1
    21    7   21 1
    22    8   22 1
    23    9   23 1
@<TRIPOS>SUBSTRUCTURE
     1 <0>         1 GROUP 0 A     ****
