@<TRIPOS>MOLECULE
AlkEthOH_r196
   27    27     1     0     0
SMALL
USER_CHARGES

@<TRIPOS>ATOM
      1 C1          1.4762    0.8774   -0.0746 CT        1 <0>       -0.13607
      2 C2          2.0927   -0.5087    0.0827 CT        1 <0>        0.14410
      3 C3          0.3717   -1.9443    0.8651 CT        1 <0>        0.33057
      4 C4          0.0246    0.9133   -0.6092 CT        1 <0>        0.14150
      5 C5         -0.9862   -0.0284    0.1338 CT        1 <0>        0.18221
      6 C6         -0.4289    2.3837   -0.6248 CT        1 <0>       -0.12385
      7 C7         -1.2005    0.3376    1.6138 CT        1 <0>       -0.10841
      8 C8         -2.3747   -0.0009   -0.5442 CT        1 <0>       -0.10841
      9 O1          1.5053   -1.1573    1.1997 OS        1 <0>       -0.46397
     10 O2         -0.5628   -1.3908   -0.0505 OS        1 <0>       -0.43410
     11 O3          0.0829    0.5184   -1.9919 OH        1 <0>       -0.58492
     12 H1          1.5143    1.3885    0.8958 HC        1 <0>        0.05230
     13 H2          2.1191    1.4412   -0.7638 HC        1 <0>        0.05230
     14 H3          2.0180   -1.1141   -0.8280 H1        1 <0>        0.05728
     15 H4          3.1580   -0.3928    0.3095 H1        1 <0>        0.05728
     16 H5          0.7272   -2.8873    0.4361 H2        1 <0>        0.05711
     17 H6         -0.1474   -2.2049    1.7932 H2        1 <0>        0.05711
     18 H7         -1.4461    2.4382   -0.9963 HC        1 <0>        0.04409
     19 H8          0.2294    2.9520   -1.2723 HC        1 <0>        0.04409
     20 H9         -0.3845    2.7802    0.3835 HC        1 <0>        0.04409
     21 H10        -1.9084   -0.3565    2.0532 HC        1 <0>        0.05043
     22 H11        -1.5893    1.3478    1.6779 HC        1 <0>        0.05043
     23 H12        -0.2526    0.2752    2.1367 HC        1 <0>        0.05043
     24 H13        -3.0420   -0.6610   -0.0044 HC        1 <0>        0.05043
     25 H14        -2.2716   -0.3353   -1.5689 HC        1 <0>        0.05043
     26 H15        -2.7565    1.0121   -0.5212 HC        1 <0>        0.05043
     27 H16         0.6528    1.1665   -2.4248 HO        1 <0>        0.39312
@<TRIPOS>BOND
     1    1    2 1
     2    1    4 1
     3    2    9 1
     4    3    9 1
     5    3   10 1
     6    4    5 1
     7    4    6 1
     8    4   11 1
     9    5    7 1
    10    5    8 1
    11    5   10 1
    12    1   12 1
    13    1   13 1
    14    2   14 1
    15    2   15 1
    16    3   16 1
    17    3   17 1
    18    6   18 1
    19    6   19 1
    20    6   20 1
    21    7   21 1
    22    7   22 1
    23    7   23 1
    24    8   24 1
    25    8   25 1
    26    8   26 1
    27   11   27 1
@<TRIPOS>SUBSTRUCTURE
     1 <0>         1 GROUP 0 A     ****
