@<TRIPOS>MOLECULE
AlkEthOH_r1017
   31    31     1     0     0
SMALL
USER_CHARGES

@<TRIPOS>ATOM
      1 C1          1.8802   -0.4204    0.1101 CT        1 <0>       -0.10257
      2 C2         -0.4572    0.8429   -1.4324 CT        1 <0>       -0.10123
      3 C3         -0.5193    0.0559    1.0836 CT        1 <0>       -0.06548
      4 C4          1.4315   -1.5206   -0.8533 CT        1 <0>        0.13527
      5 C5         -0.4993   -0.5917   -1.9598 CT        1 <0>        0.13544
      6 C6          0.9903   -0.1573    1.3370 CT        1 <0>       -0.04625
      7 C7         -0.9725    1.0882    0.0126 CT        1 <0>       -0.03734
      8 C8          1.1673   -1.2882    2.3612 CT        1 <0>       -0.09354
      9 C9         -2.5195    1.0644   -0.0159 CT        1 <0>       -0.08941
     10 C10        -0.5344    2.5034    0.4436 CT        1 <0>       -0.08941
     11 O1          0.0328   -1.5766   -1.0868 OS        1 <0>       -0.41514
     12 H1          2.8972   -0.6649    0.4465 HC        1 <0>        0.03978
     13 H2          2.0157    0.5167   -0.4345 HC        1 <0>        0.03978
     14 H3          0.5601    1.2277   -1.5384 HC        1 <0>        0.04193
     15 H4         -1.0357    1.4663   -2.1291 HC        1 <0>        0.04193
     16 H5         -1.0005   -0.9108    0.8880 HC        1 <0>        0.04831
     17 H6         -0.9554    0.3671    2.0456 HC        1 <0>        0.04831
     18 H7          1.9714   -1.4450   -1.8044 H1        1 <0>        0.04159
     19 H8          1.7061   -2.4886   -0.4191 H1        1 <0>        0.04159
     20 H9         -1.5430   -0.8700   -2.1422 H1        1 <0>        0.04244
     21 H10         0.0097   -0.6523   -2.9291 H1        1 <0>        0.04244
     22 H11         1.3754    0.7542    1.8136 HC        1 <0>        0.03808
     23 H12         0.8000   -2.2183    1.9381 HC        1 <0>        0.03394
     24 H13         0.6062   -1.0512    3.2601 HC        1 <0>        0.03394
     25 H14         2.2201   -1.3910    2.6062 HC        1 <0>        0.03394
     26 H15        -2.8898    1.2344    0.9866 HC        1 <0>        0.03361
     27 H16        -2.8471    0.0974   -0.3746 HC        1 <0>        0.03361
     28 H17        -2.8684    1.8452   -0.6791 HC        1 <0>        0.03361
     29 H18        -0.8865    2.6909    1.4511 HC        1 <0>        0.03361
     30 H19        -0.9629    3.2288   -0.2377 HC        1 <0>        0.03361
     31 H20         0.5471    2.5629    0.4137 HC        1 <0>        0.03361
@<TRIPOS>BOND
     1    1    4 1
     2    1    6 1
     3    2    5 1
     4    2    7 1
     5    3    6 1
     6    3    7 1
     7    4   11 1
     8    5   11 1
     9    6    8 1
    10    7    9 1
    11    7   10 1
    12    1   12 1
    13    1   13 1
    14    2   14 1
    15    2   15 1
    16    3   16 1
    17    3   17 1
    18    4   18 1
    19    4   19 1
    20    5   20 1
    21    5   21 1
    22    6   22 1
    23    8   23 1
    24    8   24 1
    25    8   25 1
    26    9   26 1
    27    9   27 1
    28    9   28 1
    29   10   29 1
    30   10   30 1
    31   10   31 1
@<TRIPOS>SUBSTRUCTURE
     1 <0>         1 GROUP 0 A     ****
