@<TRIPOS>MOLECULE
AlkEthOH_r264
   20    20     1     0     0
SMALL
USER_CHARGES

@<TRIPOS>ATOM
      1 C1         -0.3697    1.0937    0.1306 CT        1 <0>       -0.09673
      2 C2         -0.5418   -1.2429    0.3263 CT        1 <0>        0.13641
      3 C3         -0.6707    0.4903   -1.2344 CT        1 <0>        0.32776
      4 C4          0.2353   -0.0685    0.9121 CT        1 <0>       -0.08152
      5 C5          1.7394   -0.2141    0.6295 CT        1 <0>       -0.08618
      6 C6          0.0184    0.0701    2.4192 CT        1 <0>       -0.08618
      7 O1         -0.7977   -0.9260   -1.0495 OS        1 <0>       -0.46009
      8 O2          0.3869    0.7973   -2.1338 OH        1 <0>       -0.61575
      9 H1          0.3521    1.9160    0.0288 HC        1 <0>        0.06774
     10 H2         -1.2655    1.5212    0.5960 HC        1 <0>        0.06774
     11 H3          0.0433   -2.1714    0.3434 H1        1 <0>        0.05048
     12 H4         -1.4932   -1.4328    0.8360 H1        1 <0>        0.05048
     13 H5         -1.6077    0.8733   -1.6421 H2        1 <0>        0.05689
     14 H6          2.1427   -1.0494    1.1995 HC        1 <0>        0.04149
     15 H7          2.2588    0.6982    0.9175 HC        1 <0>        0.04149
     16 H8          1.8994   -0.3961   -0.4319 HC        1 <0>        0.04149
     17 H9          0.4661   -0.7789    2.9260 HC        1 <0>        0.04149
     18 H10        -1.0464    0.0988    2.6275 HC        1 <0>        0.04149
     19 H11         0.4826    0.9880    2.7658 HC        1 <0>        0.04149
     20 H12         0.1568    0.3962   -2.9883 HO        1 <0>        0.42001
@<TRIPOS>BOND
     1    1    3 1
     2    1    4 1
     3    2    4 1
     4    2    7 1
     5    3    7 1
     6    3    8 1
     7    4    5 1
     8    4    6 1
     9    1    9 1
    10    1   10 1
    11    2   11 1
    12    2   12 1
    13    3   13 1
    14    5   14 1
    15    5   15 1
    16    5   16 1
    17    6   17 1
    18    6   18 1
    19    6   19 1
    20    8   20 1
@<TRIPOS>SUBSTRUCTURE
     1 <0>         1 GROUP 0 A     ****
