@<TRIPOS>MOLECULE
AlkEthOH_r542
   20    20     1     0     0
SMALL
USER_CHARGES

@<TRIPOS>ATOM
      1 C1          0.9560    0.4922    0.2194 CT        1 <0>       -0.11920
      2 C2          0.1037    2.8118   -0.2366 CT        1 <0>       -0.11920
      3 C3          0.9808    0.8707    1.6981 CT        1 <0>        0.12928
      4 C4          0.1801    3.0571    1.2679 CT        1 <0>        0.12928
      5 C5          1.1027    1.7311   -0.6743 CT        1 <0>        0.14987
      6 C6          0.9132    1.3670   -2.1464 CT        1 <0>       -0.12139
      7 O1         -0.0229    1.8424    1.9885 OS        1 <0>       -0.41757
      8 O2          2.4324    2.2342   -0.5147 OH        1 <0>       -0.59903
      9 H1          1.7603   -0.2261    0.0222 HC        1 <0>        0.05661
     10 H2         -0.0000    0.0000    0.0003 HC        1 <0>        0.05661
     11 H3         -0.9134    2.4849   -0.4874 HC        1 <0>        0.05661
     12 H4          0.2947    3.7553   -0.7610 HC        1 <0>        0.05661
     13 H5          0.7745   -0.0137    2.3092 H1        1 <0>        0.05284
     14 H6          1.9615    1.2565    2.0003 H1        1 <0>        0.05284
     15 H7          1.1411    3.4982    1.5572 H1        1 <0>        0.05284
     16 H8         -0.6058    3.7574    1.5686 H1        1 <0>        0.05284
     17 H9          1.0209    2.2577   -2.7627 HC        1 <0>        0.04389
     18 H10        -0.0793    0.9463   -2.2967 HC        1 <0>        0.04389
     19 H11         1.6611    0.6341   -2.4435 HC        1 <0>        0.04389
     20 H12         2.4979    3.0124   -1.0870 HO        1 <0>        0.39849
@<TRIPOS>BOND
     1    1    3 1
     2    1    5 1
     3    2    4 1
     4    2    5 1
     5    3    7 1
     6    4    7 1
     7    5    6 1
     8    5    8 1
     9    1    9 1
    10    1   10 1
    11    2   11 1
    12    2   12 1
    13    3   13 1
    14    3   14 1
    15    4   15 1
    16    4   16 1
    17    6   17 1
    18    6   18 1
    19    6   19 1
    20    8   20 1
@<TRIPOS>SUBSTRUCTURE
     1 <0>         1 GROUP 0 A     ****
