@<TRIPOS>MOLECULE
AlkEthOH_r584
   25    25     1     0     0
SMALL
USER_CHARGES

@<TRIPOS>ATOM
      1 C1         -0.8128   -0.0148    1.5024 CT        1 <0>       -0.13153
      2 C2         -0.9922   -1.4923    1.1692 CT        1 <0>        0.14277
      3 C3          0.5302   -2.0073   -0.5775 CT        1 <0>        0.34821
      4 C4         -0.5259    0.9149    0.2988 CT        1 <0>        0.15395
      5 C5          0.6166    0.4193   -0.6408 CT        1 <0>        0.36925
      6 C6         -0.2456    2.3203    0.8595 CT        1 <0>       -0.12550
      7 C7          0.8673    1.3849   -1.8093 CT        1 <0>       -0.11961
      8 O1          0.2677   -2.0462    0.8185 OS        1 <0>       -0.44115
      9 O2          0.2022   -0.8063   -1.2649 OS        1 <0>       -0.47775
     10 O3         -1.7380    1.0273   -0.4611 OH        1 <0>       -0.58688
     11 O4          1.8303    0.3002    0.1051 OH        1 <0>       -0.60233
     12 H1         -1.7312    0.3228    2.0004 HC        1 <0>        0.06023
     13 H2          0.0075    0.0774    2.2263 HC        1 <0>        0.06023
     14 H3         -1.3277   -2.0151    2.0714 H1        1 <0>        0.05395
     15 H4         -1.7468   -1.6649    0.3931 H1        1 <0>        0.05395
     16 H5          1.5940   -2.2208   -0.7272 H2        1 <0>        0.05484
     17 H6         -0.0247   -2.8221   -1.0548 H2        1 <0>        0.05484
     18 H7         -0.0402    2.9970    0.0375 HC        1 <0>        0.04871
     19 H8          0.6127    2.2750    1.5206 HC        1 <0>        0.04871
     20 H9         -1.1148    2.6639    1.4094 HC        1 <0>        0.04871
     21 H10         1.6680    0.9968   -2.4314 HC        1 <0>        0.05807
     22 H11         1.1494    2.3576   -1.4181 HC        1 <0>        0.05807
     23 H12        -0.0391    1.4788   -2.3994 HC        1 <0>        0.05807
     24 H13        -2.3942    1.4045    0.1403 HO        1 <0>        0.39971
     25 H14         2.5025   -0.0082   -0.5197 HO        1 <0>        0.41248
@<TRIPOS>BOND
     1    1    2 1
     2    1    4 1
     3    2    8 1
     4    3    8 1
     5    3    9 1
     6    4    5 1
     7    4    6 1
     8    4   10 1
     9    5    7 1
    10    5    9 1
    11    5   11 1
    12    1   12 1
    13    1   13 1
    14    2   14 1
    15    2   15 1
    16    3   16 1
    17    3   17 1
    18    6   18 1
    19    6   19 1
    20    6   20 1
    21    7   21 1
    22    7   22 1
    23    7   23 1
    24   10   24 1
    25   11   25 1
@<TRIPOS>SUBSTRUCTURE
     1 <0>         1 GROUP 0 A     ****
