@<TRIPOS>MOLECULE
AlkEthOH_r739
   31    31     1     0     0
SMALL
USER_CHARGES

@<TRIPOS>ATOM
      1 C1          1.2068   -0.4514   -2.1231 CT        1 <0>       -0.06890
      2 C2          1.2887   -1.3564   -0.8822 CT        1 <0>       -0.07097
      3 C3          1.3068    1.0504   -1.8477 CT        1 <0>       -0.11088
      4 C4         -0.0494   -1.6277   -0.1798 CT        1 <0>       -0.06520
      5 C5         -0.0111    1.7367   -1.4830 CT        1 <0>        0.13314
      6 C6         -0.2383    0.7791    0.7021 CT        1 <0>        0.14419
      7 C7         -0.4090   -0.7277    1.0447 CT        1 <0>       -0.04980
      8 C8         -0.8867    1.7557    1.6826 CT        1 <0>       -0.10899
      9 C9          0.4870   -1.0968    2.2450 CT        1 <0>       -0.08785
     10 C10        -1.8701   -1.0609    1.4249 CT        1 <0>       -0.08785
     11 O1         -0.8246    0.9989   -0.5833 OS        1 <0>       -0.41571
     12 H1          2.0672   -0.7101   -2.7552 HC        1 <0>        0.04143
     13 H2          0.3162   -0.6791   -2.7202 HC        1 <0>        0.04143
     14 H3          1.6518   -2.3299   -1.2398 HC        1 <0>        0.03597
     15 H4          2.0516   -0.9961   -0.1849 HC        1 <0>        0.03597
     16 H5          2.0572    1.2277   -1.0688 HC        1 <0>        0.04139
     17 H6          1.6969    1.5488   -2.7445 HC        1 <0>        0.04139
     18 H7         -0.8574   -1.5917   -0.9226 HC        1 <0>        0.04402
     19 H8         -0.0318   -2.6703    0.1686 HC        1 <0>        0.04402
     20 H9          0.1767    2.7380   -1.0784 H1        1 <0>        0.04246
     21 H10        -0.6021    1.8708   -2.3957 H1        1 <0>        0.04246
     22 H11         0.8324    1.0110    0.6901 H1        1 <0>        0.04000
     23 H12        -1.9578    1.5690    1.7341 HC        1 <0>        0.04124
     24 H13        -0.7177    2.7781    1.3497 HC        1 <0>        0.04124
     25 H14        -0.4532    1.6257    2.6725 HC        1 <0>        0.04124
     26 H15         0.2279   -0.4660    3.0872 HC        1 <0>        0.03576
     27 H16         1.5244   -0.9409    1.9733 HC        1 <0>        0.03576
     28 H17         0.3252   -2.1375    2.5005 HC        1 <0>        0.03576
     29 H18        -2.1580   -0.4543    2.2739 HC        1 <0>        0.03576
     30 H19        -1.9347   -2.1109    1.6797 HC        1 <0>        0.03576
     31 H20        -2.5101   -0.8437    0.5792 HC        1 <0>        0.03576
@<TRIPOS>BOND
     1    1    2 1
     2    1    3 1
     3    2    4 1
     4    3    5 1
     5    4    7 1
     6    5   11 1
     7    6    7 1
     8    6    8 1
     9    6   11 1
    10    7    9 1
    11    7   10 1
    12    1   12 1
    13    1   13 1
    14    2   14 1
    15    2   15 1
    16    3   16 1
    17    3   17 1
    18    4   18 1
    19    4   19 1
    20    5   20 1
    21    5   21 1
    22    6   22 1
    23    8   23 1
    24    8   24 1
    25    8   25 1
    26    9   26 1
    27    9   27 1
    28    9   28 1
    29   10   29 1
    30   10   30 1
    31   10   31 1
@<TRIPOS>SUBSTRUCTURE
     1 <0>         1 GROUP 0 A     ****
