@<TRIPOS>MOLECULE
AlkEthOH_r296
   22    22     1     0     0
SMALL
USER_CHARGES

@<TRIPOS>ATOM
      1 C1         -1.1467    0.1657    1.1116 CT        1 <0>       -0.07830
      2 C2         -0.6599   -1.1229    0.4478 CT        1 <0>       -0.07484
      3 C3          0.8889    0.5662   -0.1865 CT        1 <0>       -0.11234
      4 C4         -0.1558    1.2544    0.6928 CT        1 <0>        0.13734
      5 C5          0.1739   -0.6653   -0.7575 CT        1 <0>       -0.05582
      6 C6         -0.7229   -0.2917   -1.9488 CT        1 <0>       -0.08323
      7 C7          1.1695   -1.7420   -1.1938 CT        1 <0>       -0.08323
      8 O1          0.4529    1.8356    1.8343 OH        1 <0>       -0.59686
      9 H1         -2.1454    0.4150    0.7338 HC        1 <0>        0.05575
     10 H2         -1.2261    0.0491    2.1974 HC        1 <0>        0.05575
     11 H3         -0.0345   -1.6749    1.1612 HC        1 <0>        0.04674
     12 H4         -1.4931   -1.7764    0.1686 HC        1 <0>        0.04674
     13 H5          1.2582    1.2396   -0.9679 HC        1 <0>        0.05110
     14 H6          1.7584    0.2758    0.4178 HC        1 <0>        0.05110
     15 H7         -0.6769    2.0466    0.1437 H1        1 <0>        0.03123
     16 H8         -0.1017    0.0261   -2.7802 HC        1 <0>        0.03520
     17 H9         -1.3859    0.5175   -1.6592 HC        1 <0>        0.03520
     18 H10        -1.3096   -1.1566   -2.2418 HC        1 <0>        0.03520
     19 H11         1.7427   -1.3867   -2.0475 HC        1 <0>        0.03520
     20 H12         0.6326   -2.6458   -1.4734 HC        1 <0>        0.03520
     21 H13         1.8486   -1.9669   -0.3741 HC        1 <0>        0.03520
     22 H14         1.0681    2.5154    1.5120 HO        1 <0>        0.39767
@<TRIPOS>BOND
     1    1    2 1
     2    1    4 1
     3    2    5 1
     4    3    4 1
     5    3    5 1
     6    4    8 1
     7    5    6 1
     8    5    7 1
     9    1    9 1
    10    1   10 1
    11    2   11 1
    12    2   12 1
    13    3   13 1
    14    3   14 1
    15    4   15 1
    16    6   16 1
    17    6   17 1
    18    6   18 1
    19    7   19 1
    20    7   20 1
    21    7   21 1
    22    8   22 1
@<TRIPOS>SUBSTRUCTURE
     1 <0>         1 GROUP 0 A     ****
