@<TRIPOS>MOLECULE
AlkEthOH_r300
   21    21     1     0     0
SMALL
USER_CHARGES

@<TRIPOS>ATOM
      1 C1          0.6635    1.2592    0.5122 CT        1 <0>       -0.08776
      2 C2          1.2607    0.5212   -0.6684 CT        1 <0>       -0.08767
      3 C3         -0.2217    0.1844    1.1341 CT        1 <0>        0.33781
      4 C4          0.0855   -0.3334   -1.1278 CT        1 <0>        0.33781
      5 C5         -1.4457    0.7614    1.8272 CT        1 <0>       -0.11204
      6 C6          0.5269   -1.6059   -1.8348 CT        1 <0>       -0.11204
      7 O1         -0.6522   -0.6685    0.0596 OS        1 <0>       -0.48243
      8 O2          0.5049   -0.5706    2.1029 OH        1 <0>       -0.61491
      9 O3         -0.7220    0.4522   -2.0050 OH        1 <0>       -0.61491
     10 H1          1.4300    1.6439    1.1916 HC        1 <0>        0.07137
     11 H2          0.0658    2.1018    0.1441 HC        1 <0>        0.07137
     12 H3          1.6322    1.2046   -1.4379 HC        1 <0>        0.07137
     13 H4          2.0923   -0.1024   -0.3189 HC        1 <0>        0.07137
     14 H5         -2.0472   -0.0413    2.2557 HC        1 <0>        0.05316
     15 H6         -2.0555    1.3149    1.1119 HC        1 <0>        0.05316
     16 H7         -1.1399    1.4375    2.6267 HC        1 <0>        0.05316
     17 H8         -0.3443   -2.1844   -2.1450 HC        1 <0>        0.05316
     18 H9          1.1339   -2.2161   -1.1647 HC        1 <0>        0.05316
     19 H10         1.1178   -1.3587   -2.7179 HC        1 <0>        0.05316
     20 H11        -0.1122   -1.2296    2.4548 HO        1 <0>        0.41585
     21 H12        -1.4584   -0.1145   -2.2801 HO        1 <0>        0.41585
@<TRIPOS>BOND
     1    1    2 1
     2    1    3 1
     3    2    4 1
     4    3    5 1
     5    3    7 1
     6    3    8 1
     7    4    6 1
     8    4    7 1
     9    4    9 1
    10    1   10 1
    11    1   11 1
    12    2   12 1
    13    2   13 1
    14    5   14 1
    15    5   15 1
    16    5   16 1
    17    6   17 1
    18    6   18 1
    19    6   19 1
    20    8   20 1
    21    9   21 1
@<TRIPOS>SUBSTRUCTURE
     1 <0>         1 GROUP 0 A     ****
