@<TRIPOS>MOLECULE
AlkEthOH_r548
   29    29     1     0     0
SMALL
USER_CHARGES

@<TRIPOS>ATOM
      1 C1          1.5816   -0.4693   -1.4517 CT        1 <0>       -0.13135
      2 C2         -0.1380   -0.2467    1.6582 CT        1 <0>       -0.10498
      3 C3         -0.6526    0.6202   -0.7567 CT        1 <0>       -0.10484
      4 C4          1.6686   -1.5211   -0.3539 CT        1 <0>        0.13229
      5 C5         -0.0269   -1.7336    1.3138 CT        1 <0>        0.13380
      6 C6          0.8413    0.8219   -1.0684 CT        1 <0>        0.14735
      7 C7         -1.0491    0.6171    0.7476 CT        1 <0>       -0.03698
      8 C8         -2.5106    0.1337    0.8578 CT        1 <0>       -0.09074
      9 C9         -0.9992    2.0684    1.2802 CT        1 <0>       -0.09074
     10 O1          0.3664   -1.9901   -0.0269 OS        1 <0>       -0.42015
     11 O2          0.9185    1.6995   -2.2002 OH        1 <0>       -0.60533
     12 H1          2.5971   -0.2109   -1.7780 HC        1 <0>        0.05453
     13 H2          1.0903   -0.9043   -2.3327 HC        1 <0>        0.05453
     14 H3         -0.4981   -0.1769    2.6940 HC        1 <0>        0.04479
     15 H4          0.8661    0.1924    1.6772 HC        1 <0>        0.04479
     16 H5         -1.2350    1.4084   -1.2558 HC        1 <0>        0.05611
     17 H6         -1.0018   -0.3034   -1.2367 HC        1 <0>        0.05611
     18 H7          2.2303   -2.3809   -0.7358 H1        1 <0>        0.04203
     19 H8          2.2180   -1.1456    0.5167 H1        1 <0>        0.04203
     20 H9          0.6782   -2.2257    1.9945 H1        1 <0>        0.04534
     21 H10        -0.9944   -2.2229    1.4655 H1        1 <0>        0.04534
     22 H11         1.3634    1.3248   -0.2503 H1        1 <0>        0.07295
     23 H12        -3.1343    0.7456    0.2171 HC        1 <0>        0.03610
     24 H13        -2.8364    0.2261    1.8870 HC        1 <0>        0.03610
     25 H14        -2.5646   -0.9023    0.5450 HC        1 <0>        0.03610
     26 H15        -1.6294    2.6910    0.6584 HC        1 <0>        0.03610
     27 H16         0.0238    2.4198    1.2421 HC        1 <0>        0.03610
     28 H17        -1.3581    2.0786    2.3013 HC        1 <0>        0.03610
     29 H18         0.4882    1.2332   -2.9304 HO        1 <0>        0.39652
@<TRIPOS>BOND
     1    1    4 1
     2    1    6 1
     3    2    5 1
     4    2    7 1
     5    3    6 1
     6    3    7 1
     7    4   10 1
     8    5   10 1
     9    6   11 1
    10    7    8 1
    11    7    9 1
    12    1   12 1
    13    1   13 1
    14    2   14 1
    15    2   15 1
    16    3   16 1
    17    3   17 1
    18    4   18 1
    19    4   19 1
    20    5   20 1
    21    5   21 1
    22    6   22 1
    23    8   23 1
    24    8   24 1
    25    8   25 1
    26    9   26 1
    27    9   27 1
    28    9   28 1
    29   11   29 1
@<TRIPOS>SUBSTRUCTURE
     1 <0>         1 GROUP 0 A     ****
