@<TRIPOS>MOLECULE
AlkEthOH_r673
   24    24     1     0     0
SMALL
USER_CHARGES

@<TRIPOS>ATOM
      1 C1          1.8329    1.2661   -0.4404 CT        1 <0>        0.10811
      2 C2          1.3663   -0.0019   -1.1464 CT        1 <0>        0.09380
      3 C3         -0.3957   -0.8239    1.0558 CT        1 <0>        0.11705
      4 C4          0.0930    1.5379    1.1712 CT        1 <0>        0.32226
      5 C5         -0.7945   -0.8911   -0.4345 CT        1 <0>        0.11961
      6 C6         -0.6219   -2.3248   -0.9611 CT        1 <0>       -0.10045
      7 C7         -2.2666   -0.4852   -0.6042 CT        1 <0>       -0.10045
      8 O1          1.4777    1.2875    0.9421 OS        1 <0>       -0.44049
      9 O2         -0.6390    0.4293    1.6898 OS        1 <0>       -0.43671
     10 O3         -0.0521    0.0061   -1.2724 OS        1 <0>       -0.42701
     11 H1          2.9262    1.3124   -0.4844 H1        1 <0>        0.05759
     12 H2          1.4448    2.1655   -0.9326 H1        1 <0>        0.05759
     13 H3          1.7723   -0.0044   -2.1632 H1        1 <0>        0.05387
     14 H4          1.7400   -0.8978   -0.6429 H1        1 <0>        0.05387
     15 H5         -0.9875   -1.5599    1.6140 H1        1 <0>        0.05739
     16 H6          0.6502   -1.1022    1.2221 H1        1 <0>        0.05739
     17 H7          0.0395    2.3194    1.9360 H2        1 <0>        0.06436
     18 H8         -0.4185    1.9447    0.2911 H2        1 <0>        0.06436
     19 H9         -0.9050   -2.3594   -2.0084 HC        1 <0>        0.04631
     20 H10        -1.2557   -2.9960   -0.3900 HC        1 <0>        0.04631
     21 H11         0.4160   -2.6243   -0.8540 HC        1 <0>        0.04631
     22 H12        -2.5353   -0.5362   -1.6549 HC        1 <0>        0.04631
     23 H13        -2.4044    0.5291   -0.2423 HC        1 <0>        0.04631
     24 H14        -2.8949   -1.1633   -0.0346 HC        1 <0>        0.04631
@<TRIPOS>BOND
     1    1    2 1
     2    1    8 1
     3    2   10 1
     4    3    5 1
     5    3    9 1
     6    4    8 1
     7    4    9 1
     8    5    6 1
     9    5    7 1
    10    5   10 1
    11    1   11 1
    12    1   12 1
    13    2   13 1
    14    2   14 1
    15    3   15 1
    16    3   16 1
    17    4   17 1
    18    4   18 1
    19    6   19 1
    20    6   20 1
    21    6   21 1
    22    7   22 1
    23    7   23 1
    24    7   24 1
@<TRIPOS>SUBSTRUCTURE
     1 <0>         1 GROUP 0 A     ****
