@<TRIPOS>MOLECULE
AlkEthOH_r1070
   28    28     1     0     0
SMALL
USER_CHARGES

@<TRIPOS>ATOM
      1 C1         -1.4800    0.5087    1.4982 CT        1 <0>       -0.10573
      2 C2         -0.8984   -0.8490    1.1099 CT        1 <0>       -0.06949
      3 C3         -0.4817    1.6517    1.4485 CT        1 <0>        0.13216
      4 C4          0.8982    1.4241   -0.4952 CT        1 <0>        0.13496
      5 C5          1.1232   -0.0888   -0.2796 CT        1 <0>       -0.08503
      6 C6         -0.1702   -0.9782   -0.2615 CT        1 <0>       -0.03672
      7 C7          2.1870   -0.5384   -1.2979 CT        1 <0>       -0.09156
      8 C8         -1.1256   -0.6501   -1.4249 CT        1 <0>       -0.09046
      9 C9          0.2025   -2.4790   -0.3919 CT        1 <0>       -0.09046
     10 O1         -0.2550    1.9991    0.0944 OS        1 <0>       -0.41995
     11 H1         -2.3318    0.7331    0.8450 HC        1 <0>        0.04962
     12 H2         -1.8745    0.4287    2.5184 HC        1 <0>        0.04962
     13 H3         -0.2056   -1.1579    1.9053 HC        1 <0>        0.03648
     14 H4         -1.7247   -1.5726    1.1457 HC        1 <0>        0.03648
     15 H5         -0.9331    2.5280    1.9261 H1        1 <0>        0.04363
     16 H6          0.4479    1.4343    1.9862 H1        1 <0>        0.04363
     17 H7          1.7744    1.9781   -0.1352 H1        1 <0>        0.04201
     18 H8          0.8251    1.6377   -1.5682 H1        1 <0>        0.04201
     19 H9          1.5959   -0.2023    0.7066 HC        1 <0>        0.04604
     20 H10         1.7813   -0.4504   -2.3000 HC        1 <0>        0.03662
     21 H11         2.4555   -1.5706   -1.1009 HC        1 <0>        0.03662
     22 H12         3.0634    0.0933   -1.2006 HC        1 <0>        0.03662
     23 H13        -0.5907   -0.7486   -2.3629 HC        1 <0>        0.03715
     24 H14        -1.4862    0.3663   -1.3130 HC        1 <0>        0.03715
     25 H15        -1.9613   -1.3407   -1.4044 HC        1 <0>        0.03715
     26 H16         0.7140   -2.6266   -1.3323 HC        1 <0>        0.03715
     27 H17        -0.7061   -3.0633   -0.3628 HC        1 <0>        0.03715
     28 H18         0.8479   -2.7465    0.4327 HC        1 <0>        0.03715
@<TRIPOS>BOND
     1    1    2 1
     2    1    3 1
     3    2    6 1
     4    3   10 1
     5    4    5 1
     6    4   10 1
     7    5    6 1
     8    5    7 1
     9    6    8 1
    10    6    9 1
    11    1   11 1
    12    1   12 1
    13    2   13 1
    14    2   14 1
    15    3   15 1
    16    3   16 1
    17    4   17 1
    18    4   18 1
    19    5   19 1
    20    7   20 1
    21    7   21 1
    22    7   22 1
    23    8   23 1
    24    8   24 1
    25    8   25 1
    26    9   26 1
    27    9   27 1
    28    9   28 1
@<TRIPOS>SUBSTRUCTURE
     1 <0>         1 GROUP 0 A     ****
