@<TRIPOS>MOLECULE
AlkEthOH_r79
   24    24     1     0     0
SMALL
USER_CHARGES

@<TRIPOS>ATOM
      1 C1         -1.6283    1.4290   -0.3119 CT        1 <0>       -0.10859
      2 C2         -2.0146    0.0479    0.2398 CT        1 <0>       -0.11082
      3 C3          1.8787   -0.3860   -0.2838 CT        1 <0>       -0.12199
      4 C4         -0.9243    1.3760   -1.6746 CT        1 <0>        0.13402
      5 C5         -1.2364   -0.3523    1.5006 CT        1 <0>        0.13511
      6 C6          1.3108    0.8240   -1.0252 CT        1 <0>        0.13556
      7 C7          0.8241   -1.1157    0.5561 CT        1 <0>        0.33365
      8 O1          0.1363    0.4276   -1.7257 OS        1 <0>       -0.43043
      9 O2          0.1679   -0.1535    1.3769 OS        1 <0>       -0.40762
     10 O3          1.4858   -2.0970    1.3478 OH        1 <0>       -0.61483
     11 H1         -2.5368    2.0326   -0.4301 HC        1 <0>        0.05073
     12 H2         -1.0050    1.9672    0.4106 HC        1 <0>        0.05073
     13 H3         -3.0820    0.0508    0.4937 HC        1 <0>        0.04907
     14 H4         -1.8943   -0.7182   -0.5340 HC        1 <0>        0.04907
     15 H5          2.3026   -1.1007   -1.0001 HC        1 <0>        0.05921
     16 H6          2.7103   -0.0565    0.3513 HC        1 <0>        0.05921
     17 H7         -1.6532    1.0711   -2.4337 H1        1 <0>        0.04502
     18 H8         -0.5577    2.3679   -1.9639 H1        1 <0>        0.04502
     19 H9         -1.5692    0.2772    2.3333 H1        1 <0>        0.05327
     20 H10        -1.4489   -1.3909    1.7795 H1        1 <0>        0.05327
     21 H11         1.1152    1.6385   -0.3191 H1        1 <0>        0.04258
     22 H12         2.0395    1.1915   -1.7554 H1        1 <0>        0.04258
     23 H13         0.1271   -1.6352   -0.1115 H2        1 <0>        0.05087
     24 H14         1.9269   -2.7008    0.7297 HO        1 <0>        0.40531
@<TRIPOS>BOND
     1    1    2 1
     2    1    4 1
     3    2    5 1
     4    3    6 1
     5    3    7 1
     6    4    8 1
     7    5    9 1
     8    6    8 1
     9    7    9 1
    10    7   10 1
    11    1   11 1
    12    1   12 1
    13    2   13 1
    14    2   14 1
    15    3   15 1
    16    3   16 1
    17    4   17 1
    18    4   18 1
    19    5   19 1
    20    5   20 1
    21    6   21 1
    22    6   22 1
    23    7   23 1
    24   10   24 1
@<TRIPOS>SUBSTRUCTURE
     1 <0>         1 GROUP 0 A     ****
