@<TRIPOS>MOLECULE
AlkEthOH_r91
   25    25     1     0     0
SMALL
USER_CHARGES

@<TRIPOS>ATOM
      1 C1          0.0939   -1.0783   -2.0603 CT        1 <0>       -0.07138
      2 C2         -1.3241   -0.6676   -1.6403 CT        1 <0>       -0.11847
      3 C3          0.9902   -1.6297   -0.9422 CT        1 <0>       -0.11034
      4 C4         -1.5449    0.8489   -1.6435 CT        1 <0>        0.13218
      5 C5         -1.1363    1.4252    0.6378 CT        1 <0>        0.07464
      6 C6          1.3376   -0.6108    0.1451 CT        1 <0>        0.33432
      7 C7         -0.0031    0.8498    1.4799 CT        1 <0>        0.33116
      8 O1         -0.7112    1.5388   -0.7181 OS        1 <0>       -0.42405
      9 O2          0.2345   -0.4853    1.0399 OS        1 <0>       -0.49143
     10 O3          2.4934   -1.0405    0.8629 OH        1 <0>       -0.60716
     11 O4         -0.4299    0.8495    2.8388 OH        1 <0>       -0.59250
     12 H1         -0.0003   -1.8754   -2.8097 HC        1 <0>        0.04536
     13 H2          0.6055   -0.2513   -2.5671 HC        1 <0>        0.04536
     14 H3         -2.0312   -1.0968   -2.3615 HC        1 <0>        0.05391
     15 H4         -1.5799   -1.0993   -0.6678 HC        1 <0>        0.05391
     16 H5          0.5076   -2.5058   -0.4906 HC        1 <0>        0.06076
     17 H6          1.9179   -1.9944   -1.4021 HC        1 <0>        0.06076
     18 H7         -1.3142    1.2441   -2.6391 H1        1 <0>        0.04954
     19 H8         -2.5974    1.0876   -1.4485 H1        1 <0>        0.04954
     20 H9         -2.0378    0.8069    0.7356 H1        1 <0>        0.05425
     21 H10        -1.3974    2.4272    0.9958 H1        1 <0>        0.05425
     22 H11         1.5842    0.3562   -0.3381 H2        1 <0>        0.09759
     23 H12         0.9003    1.4672    1.4030 H2        1 <0>        0.09238
     24 H13         3.2107   -1.1081    0.2143 HO        1 <0>        0.40896
     25 H14        -1.2244    0.2944    2.8796 HO        1 <0>        0.41646
@<TRIPOS>BOND
     1    1    2 1
     2    1    3 1
     3    2    4 1
     4    3    6 1
     5    4    8 1
     6    5    7 1
     7    5    8 1
     8    6    9 1
     9    6   10 1
    10    7    9 1
    11    7   11 1
    12    1   12 1
    13    1   13 1
    14    2   14 1
    15    2   15 1
    16    3   16 1
    17    3   17 1
    18    4   18 1
    19    4   19 1
    20    5   20 1
    21    5   21 1
    22    6   22 1
    23    7   23 1
    24   10   24 1
    25   11   25 1
@<TRIPOS>SUBSTRUCTURE
     1 <0>         1 GROUP 0 A     ****
