@<TRIPOS>MOLECULE
AlkEthOH_r868
   26    26     1     0     0
SMALL
USER_CHARGES

@<TRIPOS>ATOM
      1 C1          1.7797    1.2223   -0.7013 CT        1 <0>       -0.07477
      2 C2          1.9750   -0.2638   -0.4027 CT        1 <0>       -0.06981
      3 C3          0.6636    1.9044    0.0891 CT        1 <0>       -0.10523
      4 C4          0.8085   -1.1186   -0.8951 CT        1 <0>       -0.12554
      5 C5         -0.6968    1.2107   -0.0184 CT        1 <0>        0.15163
      6 C6         -0.3921   -1.1903    0.0671 CT        1 <0>        0.34696
      7 C7         -1.7863    2.0976    0.5776 CT        1 <0>       -0.09544
      8 C8         -0.1365   -2.2359    1.1570 CT        1 <0>       -0.11484
      9 O1         -0.6664    0.0220    0.7673 OS        1 <0>       -0.40666
     10 O2         -1.5486   -1.6484   -0.6406 OH        1 <0>       -0.62359
     11 H1          2.7193    1.7464   -0.4869 HC        1 <0>        0.03833
     12 H2          1.5935    1.3567   -1.7743 HC        1 <0>        0.03833
     13 H3          2.8797   -0.5897   -0.9312 HC        1 <0>        0.04469
     14 H4          2.1638   -0.4215    0.6646 HC        1 <0>        0.04469
     15 H5          0.9683    1.9479    1.1428 HC        1 <0>        0.04879
     16 H6          0.5834    2.9387   -0.2672 HC        1 <0>        0.04879
     17 H7          0.4792   -0.7495   -1.8759 HC        1 <0>        0.05170
     18 H8          1.1651   -2.1378   -1.0958 HC        1 <0>        0.05170
     19 H9         -0.9597    1.0001   -1.0620 H1        1 <0>        0.05639
     20 H10        -1.5517    2.3241    1.6167 HC        1 <0>        0.04420
     21 H11        -2.7461    1.5849    0.5330 HC        1 <0>        0.04420
     22 H12        -1.8534    3.0287    0.0166 HC        1 <0>        0.04420
     23 H13        -0.9901   -2.2766    1.8285 HC        1 <0>        0.05200
     24 H14         0.7529   -1.9642    1.7193 HC        1 <0>        0.05200
     25 H15         0.0093   -3.2103    0.6983 HC        1 <0>        0.05200
     26 H16        -1.3247   -2.5256   -0.9827 HO        1 <0>        0.40528
@<TRIPOS>BOND
     1    1    2 1
     2    1    3 1
     3    2    4 1
     4    3    5 1
     5    4    6 1
     6    5    7 1
     7    5    9 1
     8    6    8 1
     9    6    9 1
    10    6   10 1
    11    1   11 1
    12    1   12 1
    13    2   13 1
    14    2   14 1
    15    3   15 1
    16    3   16 1
    17    4   17 1
    18    4   18 1
    19    5   19 1
    20    7   20 1
    21    7   21 1
    22    7   22 1
    23    8   23 1
    24    8   24 1
    25    8   25 1
    26   10   26 1
@<TRIPOS>SUBSTRUCTURE
     1 <0>         1 GROUP 0 A     ****
