@<TRIPOS>MOLECULE
AlkEthOH_r830
   26    26     1     0     0
SMALL
USER_CHARGES

@<TRIPOS>ATOM
      1 C1          0.8800   -0.5125   -1.0448 CT        1 <0>       -0.07975
      2 C2         -1.1992    0.5598    1.6370 CT        1 <0>        0.09334
      3 C3         -0.8528    1.7932    0.8099 CT        1 <0>        0.11155
      4 C4         -0.6592   -1.5984    0.7324 CT        1 <0>        0.13603
      5 C5          0.7772   -1.2413    0.3095 CT        1 <0>       -0.09850
      6 C6          0.1016    0.8062   -1.1527 CT        1 <0>        0.13630
      7 C7          1.6273   -2.5166    0.2750 CT        1 <0>       -0.09086
      8 C8          0.5805    1.6155   -2.3549 CT        1 <0>       -0.10389
      9 O1         -1.5745   -0.5075    0.7723 OS        1 <0>       -0.42522
     10 O2          0.3191    1.6016    0.0162 OS        1 <0>       -0.42132
     11 H1          1.9447   -0.3029   -1.2174 HC        1 <0>        0.04474
     12 H2          0.5631   -1.1801   -1.8564 HC        1 <0>        0.04474
     13 H3         -0.3784    0.2770    2.3045 H1        1 <0>        0.04900
     14 H4         -2.0678    0.7870    2.2638 H1        1 <0>        0.04900
     15 H5         -1.6885    2.0931    0.1666 H1        1 <0>        0.05318
     16 H6         -0.6445    2.6271    1.4881 H1        1 <0>        0.05318
     17 H7         -1.0765   -2.3280    0.0289 H1        1 <0>        0.04579
     18 H8         -0.6563   -2.0798    1.7182 H1        1 <0>        0.04579
     19 H9          1.2208   -0.5877    1.0698 HC        1 <0>        0.06436
     20 H10        -0.9634    0.5963   -1.3069 H1        1 <0>        0.06187
     21 H11         1.2258   -3.2009   -0.4678 HC        1 <0>        0.03544
     22 H12         1.6083   -2.9924    1.2519 HC        1 <0>        0.03544
     23 H13         2.6521   -2.2632    0.0163 HC        1 <0>        0.03544
     24 H14         1.6387    1.8490   -2.2461 HC        1 <0>        0.04145
     25 H15         0.0164    2.5446   -2.4240 HC        1 <0>        0.04145
     26 H16         0.4347    1.0417   -3.2691 HC        1 <0>        0.04145
@<TRIPOS>BOND
     1    1    5 1
     2    1    6 1
     3    2    3 1
     4    2    9 1
     5    3   10 1
     6    4    5 1
     7    4    9 1
     8    5    7 1
     9    6    8 1
    10    6   10 1
    11    1   11 1
    12    1   12 1
    13    2   13 1
    14    2   14 1
    15    3   15 1
    16    3   16 1
    17    4   17 1
    18    4   18 1
    19    5   19 1
    20    6   20 1
    21    7   21 1
    22    7   22 1
    23    7   23 1
    24    8   24 1
    25    8   25 1
    26    8   26 1
@<TRIPOS>SUBSTRUCTURE
     1 <0>         1 GROUP 0 A     ****
