@<TRIPOS>MOLECULE
AlkEthOH_r1153
   27    27     1     0     0
SMALL
USER_CHARGES

@<TRIPOS>ATOM
      1 C1          0.1771    0.3695   -1.6191 CT        1 <0>       -0.13051
      2 C2         -0.9585   -0.6553   -1.7395 CT        1 <0>        0.14610
      3 C3         -0.2993   -2.1350    0.0235 CT        1 <0>        0.33037
      4 C4          0.8082   -0.3688    1.2458 CT        1 <0>        0.34291
      5 C5          0.0971    1.3170   -0.3970 CT        1 <0>        0.17276
      6 C6          0.4307   -0.8229    2.6520 CT        1 <0>       -0.11624
      7 C7         -1.1080    2.2594   -0.5523 CT        1 <0>       -0.10560
      8 C8          1.3676    2.1768   -0.3137 CT        1 <0>       -0.10560
      9 O1         -1.3101   -1.2824   -0.5101 OS        1 <0>       -0.42813
     10 O2          0.9255   -1.4902    0.3664 OS        1 <0>       -0.48481
     11 O3         -0.1302    0.6319    0.8439 OS        1 <0>       -0.42749
     12 H1          1.1281   -0.1757   -1.5906 HC        1 <0>        0.05513
     13 H2          0.2180    0.9560   -2.5464 HC        1 <0>        0.05513
     14 H3         -1.8596   -0.1491   -2.1021 H1        1 <0>        0.04335
     15 H4         -0.7074   -1.4186   -2.4853 H1        1 <0>        0.04335
     16 H5         -0.7076   -2.6355    0.9069 H2        1 <0>        0.05967
     17 H6         -0.0727   -2.9207   -0.7056 H2        1 <0>        0.05967
     18 H7          1.8035    0.0813    1.3129 H2        1 <0>        0.06580
     19 H8         -0.5577   -1.2809    2.6413 HC        1 <0>        0.05344
     20 H9          0.4186    0.0320    3.3273 HC        1 <0>        0.05344
     21 H10         1.1557   -1.5512    3.0140 HC        1 <0>        0.05344
     22 H11        -1.1591    2.9209    0.3066 HC        1 <0>        0.04397
     23 H12        -2.0178    1.6709   -0.6140 HC        1 <0>        0.04397
     24 H13        -0.9905    2.8458   -1.4579 HC        1 <0>        0.04397
     25 H14         1.3002    2.8365    0.5461 HC        1 <0>        0.04397
     26 H15         1.4621    2.7682   -1.2193 HC        1 <0>        0.04397
     27 H16         2.2336    1.5303   -0.2092 HC        1 <0>        0.04397
@<TRIPOS>BOND
     1    1    2 1
     2    1    5 1
     3    2    9 1
     4    3    9 1
     5    3   10 1
     6    4    6 1
     7    4   10 1
     8    4   11 1
     9    5    7 1
    10    5    8 1
    11    5   11 1
    12    1   12 1
    13    1   13 1
    14    2   14 1
    15    2   15 1
    16    3   16 1
    17    3   17 1
    18    4   18 1
    19    6   19 1
    20    6   20 1
    21    6   21 1
    22    7   22 1
    23    7   23 1
    24    7   24 1
    25    8   25 1
    26    8   26 1
    27    8   27 1
@<TRIPOS>SUBSTRUCTURE
     1 <0>         1 GROUP 0 A     ****
