@<TRIPOS>MOLECULE
AlkEthOH_r949
   28    28     1     0     0
SMALL
USER_CHARGES

@<TRIPOS>ATOM
      1 C1         -0.6384    1.2337    1.5612 CT        1 <0>       -0.06999
      2 C2         -1.3550   -0.0235    2.0693 CT        1 <0>       -0.09807
      3 C3          0.7860    0.9841    1.0525 CT        1 <0>       -0.07470
      4 C4         -1.6084   -1.0978    1.0179 CT        1 <0>        0.13056
      5 C5         -0.1729   -1.3650   -0.8751 CT        1 <0>        0.13715
      6 C6          0.9576    0.9543   -0.4849 CT        1 <0>       -0.04953
      7 C7         -0.0967    0.1210   -1.2665 CT        1 <0>       -0.09490
      8 C8          2.4040    0.5491   -0.8050 CT        1 <0>       -0.09252
      9 C9          0.0944    0.2323   -2.7855 CT        1 <0>       -0.09182
     10 O1         -0.3707   -1.5881    0.5160 OS        1 <0>       -0.41908
     11 H1         -1.2478    1.7515    0.8130 HC        1 <0>        0.03590
     12 H2         -0.5707    1.9219    2.4144 HC        1 <0>        0.03590
     13 H3         -0.7569   -0.4555    2.8818 HC        1 <0>        0.04545
     14 H4         -2.3159    0.2741    2.5055 HC        1 <0>        0.04545
     15 H5          1.4141    1.8063    1.4243 HC        1 <0>        0.04725
     16 H6          1.2060    0.0806    1.5110 HC        1 <0>        0.04725
     17 H7         -2.1166   -1.9428    1.4954 H1        1 <0>        0.03865
     18 H8         -2.2747   -0.7347    0.2276 H1        1 <0>        0.03865
     19 H9         -0.9746   -1.8692   -1.4293 H1        1 <0>        0.04473
     20 H10         0.7584   -1.8730   -1.1483 H1        1 <0>        0.04473
     21 H11         0.8427    1.9938   -0.8254 HC        1 <0>        0.03850
     22 H12        -1.0717    0.5783   -1.0638 HC        1 <0>        0.04909
     23 H13         2.5703   -0.4756   -0.4865 HC        1 <0>        0.03483
     24 H14         3.0879    1.2085   -0.2791 HC        1 <0>        0.03483
     25 H15         2.5724    0.6290   -1.8748 HC        1 <0>        0.03483
     26 H16         1.0493   -0.2050   -3.0625 HC        1 <0>        0.03562
     27 H17         0.0767    1.2786   -3.0762 HC        1 <0>        0.03562
     28 H18        -0.7077   -0.2983   -3.2904 HC        1 <0>        0.03562
@<TRIPOS>BOND
     1    1    2 1
     2    1    3 1
     3    2    4 1
     4    3    6 1
     5    4   10 1
     6    5    7 1
     7    5   10 1
     8    6    7 1
     9    6    8 1
    10    7    9 1
    11    1   11 1
    12    1   12 1
    13    2   13 1
    14    2   14 1
    15    3   15 1
    16    3   16 1
    17    4   17 1
    18    4   18 1
    19    5   19 1
    20    5   20 1
    21    6   21 1
    22    7   22 1
    23    8   23 1
    24    8   24 1
    25    8   25 1
    26    9   26 1
    27    9   27 1
    28    9   28 1
@<TRIPOS>SUBSTRUCTURE
     1 <0>         1 GROUP 0 A     ****
