@<TRIPOS>MOLECULE
AlkEthOH_r413
   22    22     1     0     0
SMALL
USER_CHARGES

@<TRIPOS>ATOM
      1 C1          0.8305   -0.4077    1.5890 CT        1 <0>       -0.07560
      2 C2         -0.1140   -1.5657    1.2975 CT        1 <0>       -0.11194
      3 C3          1.2792    0.2488    0.2871 CT        1 <0>       -0.09884
      4 C4         -1.2514   -1.1222    0.3902 CT        1 <0>        0.13119
      5 C5          0.0943    0.6078   -0.6290 CT        1 <0>        0.14877
      6 C6         -0.7040    1.8081   -0.0986 CT        1 <0>       -0.10096
      7 C7          0.6259    0.9623   -2.0249 CT        1 <0>       -0.10096
      8 O1         -0.7606   -0.5316   -0.8113 OS        1 <0>       -0.41628
      9 H1          0.3302    0.3279    2.2292 HC        1 <0>        0.04178
     10 H2          1.7034   -0.7690    2.1443 HC        1 <0>        0.04178
     11 H3          0.4523   -2.3620    0.7985 HC        1 <0>        0.04880
     12 H4         -0.5103   -1.9790    2.2308 HC        1 <0>        0.04880
     13 H5          1.8876    1.1348    0.5038 HC        1 <0>        0.04894
     14 H6          1.9321   -0.4659   -0.2320 HC        1 <0>        0.04894
     15 H7         -1.8519   -1.9922    0.1050 H1        1 <0>        0.04472
     16 H8         -1.9251   -0.4278    0.9026 H1        1 <0>        0.04472
     17 H9         -1.5255    2.0220   -0.7757 HC        1 <0>        0.04269
     18 H10        -0.0520    2.6739   -0.0333 HC        1 <0>        0.04269
     19 H11        -1.0962    1.5732    0.8863 HC        1 <0>        0.04269
     20 H12        -0.2066    1.2163   -2.6747 HC        1 <0>        0.04269
     21 H13         1.1596    0.1101   -2.4353 HC        1 <0>        0.04269
     22 H14         1.2998    1.8109   -1.9500 HC        1 <0>        0.04269
@<TRIPOS>BOND
     1    1    2 1
     2    1    3 1
     3    2    4 1
     4    3    5 1
     5    4    8 1
     6    5    6 1
     7    5    7 1
     8    5    8 1
     9    1    9 1
    10    1   10 1
    11    2   11 1
    12    2   12 1
    13    3   13 1
    14    3   14 1
    15    4   15 1
    16    4   16 1
    17    6   17 1
    18    6   18 1
    19    6   19 1
    20    7   20 1
    21    7   21 1
    22    7   22 1
@<TRIPOS>SUBSTRUCTURE
     1 <0>         1 GROUP 0 A     ****
