@<TRIPOS>MOLECULE
AlkEthOH_r301
   20    20     1     0     0
SMALL
USER_CHARGES

@<TRIPOS>ATOM
      1 C1          1.3951    0.8334   -0.2476 CT        1 <0>       -0.10104
      2 C2          1.1392   -0.6552   -0.1743 CT        1 <0>       -0.10270
      3 C3          0.1464    1.3972    0.4021 CT        1 <0>        0.32826
      4 C4         -0.3709   -0.7468   -0.3935 CT        1 <0>        0.15106
      5 C5         -0.7240   -0.8989   -1.8750 CT        1 <0>       -0.09758
      6 C6         -0.9976   -1.8775    0.4172 CT        1 <0>       -0.09758
      7 O1         -0.9233    0.5061    0.0589 OS        1 <0>       -0.45983
      8 O2          0.3350    1.4417    1.8122 OH        1 <0>       -0.62118
      9 H1          2.3218    1.1239    0.2554 HC        1 <0>        0.06556
     10 H2          1.4496    1.1436   -1.2972 HC        1 <0>        0.06556
     11 H3          1.7234   -1.2265   -0.9021 HC        1 <0>        0.06101
     12 H4          1.4125   -1.0168    0.8250 HC        1 <0>        0.06101
     13 H5         -0.0782    2.4066    0.0436 H2        1 <0>        0.06210
     14 H6         -1.8039   -0.9605   -1.9892 HC        1 <0>        0.04383
     15 H7         -0.2689   -1.8051   -2.2684 HC        1 <0>        0.04383
     16 H8         -0.3524   -0.0401   -2.4297 HC        1 <0>        0.04383
     17 H9         -2.0711   -1.9122    0.2361 HC        1 <0>        0.04383
     18 H10        -0.8213   -1.7134    1.4794 HC        1 <0>        0.04383
     19 H11        -0.5569   -2.8302    0.1263 HC        1 <0>        0.04383
     20 H12        -0.4808    1.8061    2.1905 HO        1 <0>        0.42237
@<TRIPOS>BOND
     1    1    2 1
     2    1    3 1
     3    2    4 1
     4    3    7 1
     5    3    8 1
     6    4    5 1
     7    4    6 1
     8    4    7 1
     9    1    9 1
    10    1   10 1
    11    2   11 1
    12    2   12 1
    13    3   13 1
    14    5   14 1
    15    5   15 1
    16    5   16 1
    17    6   17 1
    18    6   18 1
    19    6   19 1
    20    8   20 1
@<TRIPOS>SUBSTRUCTURE
     1 <0>         1 GROUP 0 A     ****
