@<TRIPOS>MOLECULE
AlkEthOH_r1131
   30    30     1     0     0
SMALL
USER_CHARGES

@<TRIPOS>ATOM
      1 C1         -0.9353    2.2680   -0.2193 CT        1 <0>       -0.10878
      2 C2         -0.0101    2.3507    1.0044 CT        1 <0>       -0.07207
      3 C3         -2.1013    1.2849   -0.0970 CT        1 <0>        0.13518
      4 C4          0.7858    1.0797    1.3023 CT        1 <0>        0.13005
      5 C5         -1.0137   -0.7923   -0.6541 CT        1 <0>        0.33535
      6 C6          1.3514   -0.8333   -0.0753 CT        1 <0>        0.34762
      7 C7         -1.9707   -1.8489   -1.1870 CT        1 <0>       -0.10523
      8 C8          1.9790   -1.1092   -1.4475 CT        1 <0>       -0.10856
      9 C9          2.2326   -1.4841    0.9974 CT        1 <0>       -0.10856
     10 O1         -1.7229   -0.0205    0.3165 OS        1 <0>       -0.43467
     11 O2          1.3341    0.5893    0.0842 OS        1 <0>       -0.45309
     12 O3          0.0710   -1.4843   -0.0245 OS        1 <0>       -0.44576
     13 H1         -1.3514    3.2658   -0.4065 HC        1 <0>        0.05031
     14 H2         -0.3387    2.0253   -1.1059 HC        1 <0>        0.05031
     15 H3          0.7070    3.1580    0.8071 HC        1 <0>        0.04347
     16 H4         -0.5791    2.6456    1.8934 HC        1 <0>        0.04347
     17 H5         -2.7990    1.6619    0.6589 H1        1 <0>        0.04300
     18 H6         -2.6567    1.2283   -1.0405 H1        1 <0>        0.04300
     19 H7          1.6105    1.3114    1.9850 H1        1 <0>        0.04911
     20 H8          0.1510    0.3419    1.8024 H1        1 <0>        0.04911
     21 H9         -0.6608   -0.1820   -1.4921 H2        1 <0>        0.05405
     22 H10        -2.3360   -2.4701   -0.3686 HC        1 <0>        0.05005
     23 H11        -1.4605   -2.4847   -1.9115 HC        1 <0>        0.05005
     24 H12        -2.8217   -1.3716   -1.6743 HC        1 <0>        0.05005
     25 H13         1.3684   -0.6554   -2.2232 HC        1 <0>        0.05209
     26 H14         2.0342   -2.1819   -1.6117 HC        1 <0>        0.05209
     27 H15         2.9792   -0.6860   -1.4803 HC        1 <0>        0.05209
     28 H16         1.8049   -1.3002    1.9794 HC        1 <0>        0.05209
     29 H17         3.2319   -1.0593    0.9533 HC        1 <0>        0.05209
     30 H18         2.2871   -2.5553    0.8218 HC        1 <0>        0.05209
@<TRIPOS>BOND
     1    1    2 1
     2    1    3 1
     3    2    4 1
     4    3   10 1
     5    4   11 1
     6    5    7 1
     7    5   10 1
     8    5   12 1
     9    6    8 1
    10    6    9 1
    11    6   11 1
    12    6   12 1
    13    1   13 1
    14    1   14 1
    15    2   15 1
    16    2   16 1
    17    3   17 1
    18    3   18 1
    19    4   19 1
    20    4   20 1
    21    5   21 1
    22    7   22 1
    23    7   23 1
    24    7   24 1
    25    8   25 1
    26    8   26 1
    27    8   27 1
    28    9   28 1
    29    9   29 1
    30    9   30 1
@<TRIPOS>SUBSTRUCTURE
     1 <0>         1 GROUP 0 A     ****
