@<TRIPOS>MOLECULE
AlkEthOH_r276
   29    29     1     0     0
SMALL
USER_CHARGES

@<TRIPOS>ATOM
      1 C1         -0.2007    1.1097   -0.1493 CT        1 <0>       -0.12170
      2 C2          1.2452   -1.2881   -0.8702 CT        1 <0>        0.10006
      3 C3         -0.1479   -1.8830   -0.9456 CT        1 <0>        0.10006
      4 C4          1.1356    0.6951    0.5168 CT        1 <0>        0.15957
      5 C5         -1.3737    0.1001   -0.1839 CT        1 <0>        0.15957
      6 C6          1.1183    1.0067    2.0240 CT        1 <0>       -0.10477
      7 C7          2.2955    1.5102   -0.0898 CT        1 <0>       -0.10477
      8 C8         -2.6148    0.8593   -0.6996 CT        1 <0>       -0.10477
      9 C9         -1.7438   -0.5075    1.1726 CT        1 <0>       -0.10477
     10 O1          1.4387   -0.6958    0.4071 OS        1 <0>       -0.42112
     11 O2         -1.1524   -0.9067   -1.1820 OS        1 <0>       -0.42112
     12 H1         -0.5362    2.0490    0.3117 HC        1 <0>        0.05484
     13 H2          0.0167    1.3637   -1.1974 HC        1 <0>        0.05484
     14 H3          1.9777   -2.0979   -0.9497 H1        1 <0>        0.05502
     15 H4          1.4348   -0.5843   -1.6861 H1        1 <0>        0.05502
     16 H5         -0.1882   -2.5699   -1.7978 H1        1 <0>        0.05502
     17 H6         -0.3920   -2.4674   -0.0532 H1        1 <0>        0.05502
     18 H7          2.0643    0.7064    2.4617 HC        1 <0>        0.04450
     19 H8          0.3079    0.4587    2.4926 HC        1 <0>        0.04450
     20 H9          0.9707    2.0719    2.1667 HC        1 <0>        0.04450
     21 H10         3.2238    1.2118    0.3834 HC        1 <0>        0.04450
     22 H11         2.1162    2.5649    0.0841 HC        1 <0>        0.04450
     23 H12         2.3460    1.3159   -1.1549 HC        1 <0>        0.04450
     24 H13        -3.4557    0.1773   -0.7354 HC        1 <0>        0.04450
     25 H14        -2.4071    1.2419   -1.6916 HC        1 <0>        0.04450
     26 H15        -2.8322    1.6789   -0.0253 HC        1 <0>        0.04450
     27 H16        -2.5729   -1.1999    1.0480 HC        1 <0>        0.04450
     28 H17        -2.0354    0.2836    1.8591 HC        1 <0>        0.04450
     29 H18        -0.8877   -1.0402    1.5793 HC        1 <0>        0.04450
@<TRIPOS>BOND
     1    1    4 1
     2    1    5 1
     3    2    3 1
     4    2   10 1
     5    3   11 1
     6    4    6 1
     7    4    7 1
     8    4   10 1
     9    5    8 1
    10    5    9 1
    11    5   11 1
    12    1   12 1
    13    1   13 1
    14    2   14 1
    15    2   15 1
    16    3   16 1
    17    3   17 1
    18    6   18 1
    19    6   19 1
    20    6   20 1
    21    7   21 1
    22    7   22 1
    23    7   23 1
    24    8   24 1
    25    8   25 1
    26    8   26 1
    27    9   27 1
    28    9   28 1
    29    9   29 1
@<TRIPOS>SUBSTRUCTURE
     1 <0>         1 GROUP 0 A     ****
