@<TRIPOS>MOLECULE
AlkEthOH_r903
   28    28     1     0     0
SMALL
USER_CHARGES

@<TRIPOS>ATOM
      1 C1         -0.3938    2.2256    0.3920 CT        1 <0>       -0.06738
      2 C2         -1.2610    1.2308   -0.3789 CT        1 <0>       -0.08324
      3 C3          0.9402    1.7553    0.9743 CT        1 <0>       -0.07058
      4 C4         -1.8704    0.0853    0.4332 CT        1 <0>       -0.06197
      5 C5          1.9278    1.1277   -0.0156 CT        1 <0>       -0.09599
      6 C6         -0.9486   -1.0464    0.9022 CT        1 <0>       -0.10206
      7 C7          1.8848   -0.3989   -0.0524 CT        1 <0>        0.13355
      8 C8         -0.0989   -1.7430   -0.1727 CT        1 <0>        0.14959
      9 C9         -0.9641   -2.3957   -1.2470 CT        1 <0>       -0.09247
     10 O1          0.7841   -0.8407   -0.8351 OS        1 <0>       -0.42448
     11 H1         -0.1828    3.0657   -0.2834 HC        1 <0>        0.03205
     12 H2         -0.9907    2.6496    1.2098 HC        1 <0>        0.03205
     13 H3         -2.1077    1.8090   -0.7760 HC        1 <0>        0.05044
     14 H4         -0.7429    0.8688   -1.2699 HC        1 <0>        0.05044
     15 H5          1.4236    2.6535    1.3837 HC        1 <0>        0.03437
     16 H6          0.7835    1.1084    1.8415 HC        1 <0>        0.03437
     17 H7         -2.3722    0.5056    1.3144 HC        1 <0>        0.03395
     18 H8         -2.6707   -0.3604   -0.1716 HC        1 <0>        0.03395
     19 H9          1.7751    1.5436   -1.0181 HC        1 <0>        0.04974
     20 H10         2.9382    1.4140    0.3030 HC        1 <0>        0.04974
     21 H11        -0.3003   -0.6698    1.6963 HC        1 <0>        0.04055
     22 H12        -1.5773   -1.8061    1.3857 HC        1 <0>        0.04055
     23 H13         2.7880   -0.7619   -0.5553 H1        1 <0>        0.03669
     24 H14         1.8895   -0.8240    0.9578 H1        1 <0>        0.03669
     25 H15         0.4950   -2.5361    0.2998 H1        1 <0>        0.02580
     26 H16        -1.5721   -1.6400   -1.7427 HC        1 <0>        0.04455
     27 H17        -1.6196   -3.1384   -0.7940 HC        1 <0>        0.04455
     28 H18        -0.3308   -2.8839   -1.9866 HC        1 <0>        0.04455
@<TRIPOS>BOND
     1    1    2 1
     2    1    3 1
     3    2    4 1
     4    3    5 1
     5    4    6 1
     6    5    7 1
     7    6    8 1
     8    7   10 1
     9    8    9 1
    10    8   10 1
    11    1   11 1
    12    1   12 1
    13    2   13 1
    14    2   14 1
    15    3   15 1
    16    3   16 1
    17    4   17 1
    18    4   18 1
    19    5   19 1
    20    5   20 1
    21    6   21 1
    22    6   22 1
    23    7   23 1
    24    7   24 1
    25    8   25 1
    26    9   26 1
    27    9   27 1
    28    9   28 1
@<TRIPOS>SUBSTRUCTURE
     1 <0>         1 GROUP 0 A     ****
