@<TRIPOS>MOLECULE
AlkEthOH_r1152
   11    11     1     0     0
SMALL
USER_CHARGES

@<TRIPOS>ATOM
      1 C1         -0.4436    0.2346   -1.3310 CT        1 <0>        0.32992
      2 C2          0.5011   -0.2615    0.3925 CT        1 <0>        0.34245
      3 C3          0.0075   -0.0095    1.7952 CT        1 <0>       -0.12082
      4 O1          0.4314    0.9112   -0.4256 OS        1 <0>       -0.46726
      5 O2         -0.4964   -0.8748   -0.4311 OS        1 <0>       -0.46726
      6 H1         -1.4063    0.7350   -1.4504 H2        1 <0>        0.06456
      7 H2          0.0248   -0.0058   -2.2877 H2        1 <0>        0.06456
      8 H3          1.4704   -0.7647    0.3181 H2        1 <0>        0.07550
      9 H4         -0.9645    0.4954    1.7798 HC        1 <0>        0.05945
     10 H5          0.7117    0.6227    2.3468 HC        1 <0>        0.05945
     11 H6         -0.1059   -0.9518    2.3420 HC        1 <0>        0.05945
@<TRIPOS>BOND
     1    1    4 1
     2    1    5 1
     3    2    3 1
     4    2    4 1
     5    2    5 1
     6    1    6 1
     7    1    7 1
     8    2    8 1
     9    3    9 1
    10    3   10 1
    11    3   11 1
@<TRIPOS>SUBSTRUCTURE
     1 <0>         1 GROUP 0 A     ****
