@<TRIPOS>MOLECULE
AlkEthOH_r729
   23    23     1     0     0
SMALL
USER_CHARGES

@<TRIPOS>ATOM
      1 C1         -0.0035    1.2156   -1.6924 CT        1 <0>        0.09027
      2 C2         -1.1053    0.1666   -1.7686 CT        1 <0>        0.12788
      3 C3          0.6799    1.9164    0.4912 CT        1 <0>        0.09334
      4 C4          0.4357    0.6238    1.2685 CT        1 <0>        0.32093
      5 C5         -0.1841   -1.2988   -0.0657 CT        1 <0>        0.54227
      6 C6         -0.7170   -2.1927    1.0638 CT        1 <0>       -0.10565
      7 O1         -0.2349    2.0897   -0.5904 OS        1 <0>       -0.40397
      8 O2         -1.3123   -0.5668   -0.5645 OS        1 <0>       -0.43738
      9 O3          0.8643   -0.4807    0.4728 OS        1 <0>       -0.53468
     10 O4          1.2132    0.6842    2.4613 OH        1 <0>       -0.59537
     11 O5          0.3640   -2.1572   -1.0759 OH        1 <0>       -0.61609
     12 H1          0.9939    0.7651   -1.6572 H1        1 <0>        0.05723
     13 H2         -0.0373    1.8243   -2.6025 H1        1 <0>        0.05723
     14 H3         -2.0561    0.6712   -1.9734 H1        1 <0>        0.06773
     15 H4         -0.9273   -0.5258   -2.5984 H1        1 <0>        0.06773
     16 H5          0.5451    2.7723    1.1623 H1        1 <0>        0.06123
     17 H6          1.7106    1.9743    0.1194 H1        1 <0>        0.06123
     18 H7         -0.6202    0.5524    1.5514 H2        1 <0>        0.10637
     19 H8          0.0993   -2.7756    1.4833 HC        1 <0>        0.06365
     20 H9         -1.4746   -2.8655    0.6695 HC        1 <0>        0.06365
     21 H10        -1.1550   -1.5734    1.8427 HC        1 <0>        0.06365
     22 H11         2.1386    0.7674    2.1837 HO        1 <0>        0.41230
     23 H12         1.0723   -2.6601   -0.6483 HO        1 <0>        0.43645
@<TRIPOS>BOND
     1    1    2 1
     2    1    7 1
     3    2    8 1
     4    3    4 1
     5    3    7 1
     6    4    9 1
     7    4   10 1
     8    5    6 1
     9    5    8 1
    10    5    9 1
    11    5   11 1
    12    1   12 1
    13    1   13 1
    14    2   14 1
    15    2   15 1
    16    3   16 1
    17    3   17 1
    18    4   18 1
    19    6   19 1
    20    6   20 1
    21    6   21 1
    22   10   22 1
    23   11   23 1
@<TRIPOS>SUBSTRUCTURE
     1 <0>         1 GROUP 0 A     ****
