@<TRIPOS>MOLECULE
AlkEthOH_r396
   33    33     1     0     0
SMALL
USER_CHARGES

@<TRIPOS>ATOM
      1 C1         -1.2480    1.4758    1.3127 CT        1 <0>       -0.08177
      2 C2         -1.4286    0.0772    1.9035 CT        1 <0>       -0.06668
      3 C3          0.0835    2.1561    1.6242 CT        1 <0>       -0.09080
      4 C4         -0.6761   -1.0945    1.2565 CT        1 <0>       -0.09787
      5 C5          1.3250    1.5455    0.9905 CT        1 <0>        0.13993
      6 C6         -0.8370   -1.2937   -0.2656 CT        1 <0>        0.18933
      7 C7          1.0511    0.1907   -1.0089 CT        1 <0>        0.54188
      8 C8         -2.3323   -1.3610   -0.6366 CT        1 <0>       -0.10526
      9 C9         -0.2178   -2.6367   -0.6969 CT        1 <0>       -0.10526
     10 C10         1.3912    0.4267   -2.4906 CT        1 <0>       -0.10018
     11 O1          1.2230    1.4946   -0.4245 OS        1 <0>       -0.46713
     12 O2         -0.3230   -0.2186   -1.0535 OS        1 <0>       -0.44194
     13 O3          1.9891   -0.7622   -0.5108 OH        1 <0>       -0.63556
     14 H1         -1.4495    1.4916    0.2386 HC        1 <0>        0.05469
     15 H2         -2.0313    2.1077    1.7538 HC        1 <0>        0.05469
     16 H3         -1.1664    0.1057    2.9691 HC        1 <0>        0.03260
     17 H4         -2.5009   -0.1567    1.8788 HC        1 <0>        0.03260
     18 H5          0.0019    3.1927    1.2717 HC        1 <0>        0.04127
     19 H6          0.2245    2.2073    2.7105 HC        1 <0>        0.04127
     20 H7          0.3770   -1.0340    1.5291 HC        1 <0>        0.04937
     21 H8         -1.0340   -2.0054    1.7580 HC        1 <0>        0.04937
     22 H9          2.1675    2.2123    1.2098 H1        1 <0>        0.04383
     23 H10         1.5915    0.5926    1.4454 H1        1 <0>        0.04383
     24 H11        -2.4257   -1.5009   -1.7073 HC        1 <0>        0.04559
     25 H12        -2.8122   -0.4346   -0.3431 HC        1 <0>        0.04559
     26 H13        -2.7895   -2.1939   -0.1151 HC        1 <0>        0.04559
     27 H14        -0.3406   -2.7581   -1.7676 HC        1 <0>        0.04559
     28 H15        -0.7206   -3.4443   -0.1764 HC        1 <0>        0.04559
     29 H16         0.8374   -2.6394   -0.4462 HC        1 <0>        0.04559
     30 H17         1.2920   -0.5076   -3.0325 HC        1 <0>        0.05950
     31 H18         2.4103    0.7893   -2.5691 HC        1 <0>        0.05950
     32 H19         0.7077    1.1624   -2.9005 HC        1 <0>        0.05950
     33 H20         2.8692   -0.3700   -0.6232 HO        1 <0>        0.42575
@<TRIPOS>BOND
     1    1    2 1
     2    1    3 1
     3    2    4 1
     4    3    5 1
     5    4    6 1
     6    5   11 1
     7    6    8 1
     8    6    9 1
     9    6   12 1
    10    7   10 1
    11    7   11 1
    12    7   12 1
    13    7   13 1
    14    1   14 1
    15    1   15 1
    16    2   16 1
    17    2   17 1
    18    3   18 1
    19    3   19 1
    20    4   20 1
    21    4   21 1
    22    5   22 1
    23    5   23 1
    24    8   24 1
    25    8   25 1
    26    8   26 1
    27    9   27 1
    28    9   28 1
    29    9   29 1
    30   10   30 1
    31   10   31 1
    32   10   32 1
    33   13   33 1
@<TRIPOS>SUBSTRUCTURE
     1 <0>         1 GROUP 0 A     ****
