@<TRIPOS>MOLECULE
AlkEthOH_r295
   23    23     1     0     0
SMALL
USER_CHARGES

@<TRIPOS>ATOM
      1 C1         -0.8843    1.1436    0.6302 CT        1 <0>       -0.10545
      2 C2         -1.5131   -0.2063    0.2591 CT        1 <0>       -0.10545
      3 C3          0.6670    0.0501   -0.8213 CT        1 <0>       -0.06412
      4 C4          0.6152    0.9665    0.4045 CT        1 <0>        0.14936
      5 C5         -0.4587   -0.9625   -0.5678 CT        1 <0>        0.14936
      6 C6          1.3454    2.2855    0.2002 CT        1 <0>       -0.11599
      7 C7         -1.0149   -1.5480   -1.8591 CT        1 <0>       -0.11599
      8 O1          1.1752    0.3059    1.5381 OH        1 <0>       -0.58494
      9 O2          0.0683   -2.0349    0.2162 OH        1 <0>       -0.58494
     10 H1         -1.2905    1.9191   -0.0309 HC        1 <0>        0.04825
     11 H2         -1.1273    1.4128    1.6636 HC        1 <0>        0.04825
     12 H3         -1.7798   -0.7591    1.1675 HC        1 <0>        0.04825
     13 H4         -2.4367   -0.0301   -0.3038 HC        1 <0>        0.04825
     14 H5          0.4681    0.6268   -1.7330 HC        1 <0>        0.07062
     15 H6          1.6413   -0.4420   -0.9143 HC        1 <0>        0.07062
     16 H7          2.4096    2.1047    0.0437 HC        1 <0>        0.04253
     17 H8          1.2218    2.9222    1.0771 HC        1 <0>        0.04253
     18 H9          0.9446    2.8048   -0.6714 HC        1 <0>        0.04253
     19 H10        -0.2267   -2.0701   -2.4016 HC        1 <0>        0.04253
     20 H11        -1.4103   -0.7515   -2.4896 HC        1 <0>        0.04253
     21 H12        -1.8161   -2.2522   -1.6345 HC        1 <0>        0.04253
     22 H13         0.9996    0.8754    2.3026 HO        1 <0>        0.39437
     23 H14        -0.6823   -2.6070    0.4342 HO        1 <0>        0.39437
@<TRIPOS>BOND
     1    1    2 1
     2    1    4 1
     3    2    5 1
     4    3    4 1
     5    3    5 1
     6    4    6 1
     7    4    8 1
     8    5    7 1
     9    5    9 1
    10    1   10 1
    11    1   11 1
    12    2   12 1
    13    2   13 1
    14    3   14 1
    15    3   15 1
    16    6   16 1
    17    6   17 1
    18    6   18 1
    19    7   19 1
    20    7   20 1
    21    7   21 1
    22    8   22 1
    23    9   23 1
@<TRIPOS>SUBSTRUCTURE
     1 <0>         1 GROUP 0 A     ****
