@<TRIPOS>MOLECULE
AlkEthOH_r1124
   32    32     1     0     0
SMALL
USER_CHARGES

@<TRIPOS>ATOM
      1 C1          1.9398    0.3122   -1.0009 CT        1 <0>       -0.08201
      2 C2          2.0931    0.6666    0.4794 CT        1 <0>       -0.06626
      3 C3          1.9511   -1.1790   -1.3375 CT        1 <0>       -0.09257
      4 C4          0.9000    0.4368    1.4182 CT        1 <0>       -0.09469
      5 C5          0.7655   -2.0107   -0.8650 CT        1 <0>        0.13673
      6 C6         -1.2580   -0.8399   -0.3185 CT        1 <0>        0.33102
      7 C7         -0.4562    1.0605    1.0150 CT        1 <0>        0.15805
      8 C8         -2.7080   -0.9433   -0.7771 CT        1 <0>       -0.09719
      9 C9         -0.3059    2.5759    0.7961 CT        1 <0>       -0.10475
     10 C10        -1.4870    0.8567    2.1405 CT        1 <0>       -0.10475
     11 O1         -0.4734   -1.4870   -1.3260 OS        1 <0>       -0.42474
     12 O2         -0.9611    0.5512   -0.2242 OS        1 <0>       -0.43195
     13 H1          1.0733    0.8055   -1.4486 HC        1 <0>        0.05763
     14 H2          2.8047    0.7520   -1.5174 HC        1 <0>        0.05763
     15 H3          2.9556    0.1218    0.8848 HC        1 <0>        0.03406
     16 H4          2.3689    1.7274    0.5395 HC        1 <0>        0.03406
     17 H5          1.9932   -1.2545   -2.4323 HC        1 <0>        0.04177
     18 H6          2.8763   -1.6321   -0.9612 HC        1 <0>        0.04177
     19 H7          0.7838   -0.6358    1.5887 HC        1 <0>        0.03896
     20 H8          1.1871    0.8437    2.3983 HC        1 <0>        0.03896
     21 H9          0.8615   -3.0071   -1.3125 H1        1 <0>        0.03517
     22 H10         0.7793   -2.1775    0.2145 H1        1 <0>        0.03517
     23 H11        -1.1666   -1.3688    0.6357 H2        1 <0>        0.03973
     24 H12        -2.8355   -0.4257   -1.7276 HC        1 <0>        0.05190
     25 H13        -3.3658   -0.4901   -0.0359 HC        1 <0>        0.05190
     26 H14        -2.9844   -1.9899   -0.9036 HC        1 <0>        0.05190
     27 H15        -1.2667    2.9939    0.5144 HC        1 <0>        0.04375
     28 H16         0.4157    2.7534    0.0054 HC        1 <0>        0.04375
     29 H17         0.0383    3.0379    1.7156 HC        1 <0>        0.04375
     30 H18        -2.4317    1.2989    1.8433 HC        1 <0>        0.04375
     31 H19        -1.1270    1.3353    3.0448 HC        1 <0>        0.04375
     32 H20        -1.6186   -0.2056    2.3155 HC        1 <0>        0.04375
@<TRIPOS>BOND
     1    1    2 1
     2    1    3 1
     3    2    4 1
     4    3    5 1
     5    4    7 1
     6    5   11 1
     7    6    8 1
     8    6   11 1
     9    6   12 1
    10    7    9 1
    11    7   10 1
    12    7   12 1
    13    1   13 1
    14    1   14 1
    15    2   15 1
    16    2   16 1
    17    3   17 1
    18    3   18 1
    19    4   19 1
    20    4   20 1
    21    5   21 1
    22    5   22 1
    23    6   23 1
    24    8   24 1
    25    8   25 1
    26    8   26 1
    27    9   27 1
    28    9   28 1
    29    9   29 1
    30   10   30 1
    31   10   31 1
    32   10   32 1
@<TRIPOS>SUBSTRUCTURE
     1 <0>         1 GROUP 0 A     ****
