@<TRIPOS>MOLECULE
AlkEthOH_r556
   29    29     1     0     0
SMALL
USER_CHARGES

@<TRIPOS>ATOM
      1 C1          0.5691   -0.1706   -1.5237 CT        1 <0>       -0.10832
      2 C2          0.4132   -0.1583    1.6524 CT        1 <0>       -0.13383
      3 C3          1.3127   -1.4597   -1.1744 CT        1 <0>        0.13429
      4 C4          1.6882   -0.7621    1.0782 CT        1 <0>        0.13412
      5 C5         -0.7167    0.1759   -0.7126 CT        1 <0>       -0.01788
      6 C6         -0.3620    0.7864    0.7028 CT        1 <0>        0.16177
      7 C7         -1.6370   -1.0582   -0.6086 CT        1 <0>       -0.09363
      8 C8         -1.4759    1.2304   -1.5680 CT        1 <0>       -0.09363
      9 C9         -1.6034    1.2888    1.4693 CT        1 <0>       -0.12593
     10 O1          1.3441   -1.8159    0.1953 OS        1 <0>       -0.42174
     11 O2          0.4677    1.9435    0.4892 OH        1 <0>       -0.60448
     12 H1          1.2749    0.6669   -1.4504 HC        1 <0>        0.05581
     13 H2          0.3308   -0.2319   -2.5949 HC        1 <0>        0.05581
     14 H3         -0.2487   -0.9668    1.9869 HC        1 <0>        0.05269
     15 H4          0.7055    0.4107    2.5455 HC        1 <0>        0.05269
     16 H5          0.8449   -2.2980   -1.7028 H1        1 <0>        0.04082
     17 H6          2.3431   -1.4021   -1.5451 H1        1 <0>        0.04082
     18 H7          2.3478   -0.0228    0.6105 H1        1 <0>        0.05042
     19 H8          2.2521   -1.2180    1.8995 H1        1 <0>        0.05042
     20 H9         -2.5210   -0.7921   -0.0419 HC        1 <0>        0.04029
     21 H10        -1.1023   -1.8554   -0.1064 HC        1 <0>        0.04029
     22 H11        -1.9184   -1.3731   -1.6062 HC        1 <0>        0.04029
     23 H12        -2.3802    1.5052   -1.0465 HC        1 <0>        0.04029
     24 H13        -1.7104    0.7883   -2.5245 HC        1 <0>        0.04029
     25 H14        -0.8361    2.0905   -1.6952 HC        1 <0>        0.04029
     26 H15        -2.1685    1.9548    0.8283 HC        1 <0>        0.04355
     27 H16        -1.2796    1.8180    2.3575 HC        1 <0>        0.04355
     28 H17        -2.2141    0.4384    1.7481 HC        1 <0>        0.04355
     29 H18         0.6053    2.3321    1.3626 HO        1 <0>        0.39739
@<TRIPOS>BOND
     1    1    3 1
     2    1    5 1
     3    2    4 1
     4    2    6 1
     5    3   10 1
     6    4   10 1
     7    5    6 1
     8    5    7 1
     9    5    8 1
    10    6    9 1
    11    6   11 1
    12    1   12 1
    13    1   13 1
    14    2   14 1
    15    2   15 1
    16    3   16 1
    17    3   17 1
    18    4   18 1
    19    4   19 1
    20    7   20 1
    21    7   21 1
    22    7   22 1
    23    8   23 1
    24    8   24 1
    25    8   25 1
    26    9   26 1
    27    9   27 1
    28    9   28 1
    29   11   29 1
@<TRIPOS>SUBSTRUCTURE
     1 <0>         1 GROUP 0 A     ****
