@<TRIPOS>MOLECULE
AlkEthOH_r915
   27    27     1     0     0
SMALL
USER_CHARGES

@<TRIPOS>ATOM
      1 C1         -1.3162    1.0134   -1.2216 CT        1 <0>       -0.07743
      2 C2         -1.0242   -0.2987   -1.9532 CT        1 <0>       -0.06552
      3 C3         -2.1407    0.8746    0.0634 CT        1 <0>       -0.09756
      4 C4         -0.1785   -1.3465   -1.2233 CT        1 <0>       -0.10946
      5 C5         -1.3150    0.9346    1.3472 CT        1 <0>        0.14711
      6 C6          1.2317   -0.9175   -0.7841 CT        1 <0>        0.16626
      7 C7          0.7632   -0.2476    1.4782 CT        1 <0>        0.52614
      8 C8          2.0777   -0.4382   -1.9610 CT        1 <0>       -0.09502
      9 O1         -0.6612   -0.3056    1.5904 OS        1 <0>       -0.45003
     10 O2          1.2298    0.1343    0.1825 OS        1 <0>       -0.48778
     11 O3          1.3332    0.5973    2.4814 OH        1 <0>       -0.62245
     12 H1         -0.3974    1.5824   -1.0476 HC        1 <0>        0.04517
     13 H2         -1.9047    1.6262   -1.9183 HC        1 <0>        0.04517
     14 H3         -1.9815   -0.7662   -2.2190 HC        1 <0>        0.03473
     15 H4         -0.5444   -0.0579   -2.9098 HC        1 <0>        0.03473
     16 H5         -2.8444    1.7161    0.0946 HC        1 <0>        0.04858
     17 H6         -2.7386   -0.0436    0.0360 HC        1 <0>        0.04858
     18 H7         -0.7441   -1.7212   -0.3649 HC        1 <0>        0.05612
     19 H8         -0.0729   -2.2078   -1.8966 HC        1 <0>        0.05612
     20 H9         -0.6220    1.7841    1.3376 H1        1 <0>        0.04921
     21 H10        -1.9990    1.0905    2.1888 H1        1 <0>        0.04921
     22 H11         1.7416   -1.7886   -0.3528 H1        1 <0>        0.02833
     23 H12         1.1256   -1.2587    1.6978 H3        1 <0>        0.09583
     24 H13         1.6098    0.4294   -2.4238 HC        1 <0>        0.04681
     25 H14         2.1656   -1.2324   -2.7009 HC        1 <0>        0.04681
     26 H15         3.0726   -0.1634   -1.6135 HC        1 <0>        0.04681
     27 H16         2.2906    0.5821    2.3370 HO        1 <0>        0.43353
@<TRIPOS>BOND
     1    1    2 1
     2    1    3 1
     3    2    4 1
     4    3    5 1
     5    4    6 1
     6    5    9 1
     7    6    8 1
     8    6   10 1
     9    7    9 1
    10    7   10 1
    11    7   11 1
    12    1   12 1
    13    1   13 1
    14    2   14 1
    15    2   15 1
    16    3   16 1
    17    3   17 1
    18    4   18 1
    19    4   19 1
    20    5   20 1
    21    5   21 1
    22    6   22 1
    23    7   23 1
    24    8   24 1
    25    8   25 1
    26    8   26 1
    27   11   27 1
@<TRIPOS>SUBSTRUCTURE
     1 <0>         1 GROUP 0 A     ****
