@<TRIPOS>MOLECULE
AlkEthOH_r283
   28    28     1     0     0
SMALL
USER_CHARGES

@<TRIPOS>ATOM
      1 C1         -0.8182    0.4927    0.7155 CT        1 <0>       -0.10852
      2 C2          1.4901    0.5946   -1.9178 CT        1 <0>        0.10290
      3 C3          1.8372    1.0645   -0.5111 CT        1 <0>        0.10600
      4 C4         -0.4056   -0.7957   -1.4877 CT        1 <0>        0.10043
      5 C5         -1.3797   -0.4828   -0.3433 CT        1 <0>        0.14190
      6 C6          0.5621    0.1866    1.3531 CT        1 <0>        0.35446
      7 C7         -2.6806    0.1115   -0.9089 CT        1 <0>       -0.12325
      8 C8          0.5301   -1.0956    2.1873 CT        1 <0>       -0.11398
      9 O1          0.0867    0.4010   -2.0848 OS        1 <0>       -0.41471
     10 O2          1.6240    0.0031    0.4131 OS        1 <0>       -0.41713
     11 O3         -1.7281   -1.7103    0.3000 OH        1 <0>       -0.60339
     12 O4          0.8818    1.2306    2.2847 OH        1 <0>       -0.63029
     13 H1         -0.7839    1.4993    0.2779 HC        1 <0>        0.06647
     14 H2         -1.5454    0.5756    1.5370 HC        1 <0>        0.06647
     15 H3          1.7892    1.3675   -2.6332 H1        1 <0>        0.05562
     16 H4          2.0256   -0.3251   -2.1813 H1        1 <0>        0.05562
     17 H5          2.9041    1.3082   -0.4736 H1        1 <0>        0.06166
     18 H6          1.2833    1.9695   -0.2430 H1        1 <0>        0.06166
     19 H7          0.3969   -1.4677   -1.1584 H1        1 <0>        0.05572
     20 H8         -0.9297   -1.3561   -2.2720 H1        1 <0>        0.05572
     21 H9         -3.0881   -0.5629   -1.6551 HC        1 <0>        0.04671
     22 H10        -2.4672    1.0733   -1.3640 HC        1 <0>        0.04671
     23 H11        -3.3962    0.2396   -0.1031 HC        1 <0>        0.04671
     24 H12         1.5126   -1.2759    2.6165 HC        1 <0>        0.05836
     25 H13         0.2538   -1.9353    1.5545 HC        1 <0>        0.05836
     26 H14        -0.1990   -0.9919    2.9872 HC        1 <0>        0.05836
     27 H15        -2.0741   -2.2923   -0.3928 HO        1 <0>        0.39981
     28 H16         0.1760    1.2218    2.9452 HO        1 <0>        0.41162
@<TRIPOS>BOND
     1    1    5 1
     2    1    6 1
     3    2    3 1
     4    2    9 1
     5    3   10 1
     6    4    5 1
     7    4    9 1
     8    5    7 1
     9    5   11 1
    10    6    8 1
    11    6   10 1
    12    6   12 1
    13    1   13 1
    14    1   14 1
    15    2   15 1
    16    2   16 1
    17    3   17 1
    18    3   18 1
    19    4   19 1
    20    4   20 1
    21    7   21 1
    22    7   22 1
    23    7   23 1
    24    8   24 1
    25    8   25 1
    26    8   26 1
    27   11   27 1
    28   12   28 1
@<TRIPOS>SUBSTRUCTURE
     1 <0>         1 GROUP 0 A     ****
