@<TRIPOS>MOLECULE
AlkEthOH_r1046
   23    23     1     0     0
SMALL
USER_CHARGES

@<TRIPOS>ATOM
      1 C1          0.6151    0.1663    1.5449 CT        1 <0>       -0.10562
      2 C2          0.0271    1.5469    1.2740 CT        1 <0>        0.14042
      3 C3         -1.3630    1.3546   -0.6451 CT        1 <0>        0.32977
      4 C4          0.9768   -0.6516    0.2848 CT        1 <0>       -0.08174
      5 C5         -0.1804   -0.7244   -0.7393 CT        1 <0>        0.14764
      6 C6          1.4633   -2.0363    0.7272 CT        1 <0>       -0.09003
      7 C7          0.1234   -1.6414   -1.9223 CT        1 <0>       -0.09849
      8 O1         -1.2972    1.4062    0.7754 OS        1 <0>       -0.46020
      9 O2         -0.3650    0.5797   -1.2996 OS        1 <0>       -0.45312
     10 H1          1.5187    0.2879    2.1552 HC        1 <0>        0.04912
     11 H2         -0.1034   -0.4093    2.1433 HC        1 <0>        0.04912
     12 H3         -0.0493    2.0862    2.2241 H1        1 <0>        0.05194
     13 H4          0.6549    2.1483    0.6061 H1        1 <0>        0.05194
     14 H5         -2.3495    0.9691   -0.9240 H2        1 <0>        0.05679
     15 H6         -1.2957    2.3772   -1.0312 H2        1 <0>        0.05679
     16 H7          1.8208   -0.1349   -0.1935 HC        1 <0>        0.06129
     17 H8         -1.1053   -1.0758   -0.2633 H1        1 <0>        0.05270
     18 H9          0.6477   -2.5726    1.2052 HC        1 <0>        0.03612
     19 H10         2.2840   -1.9253    1.4310 HC        1 <0>        0.03612
     20 H11         1.8043   -2.5958   -0.1400 HC        1 <0>        0.03612
     21 H12         1.0380   -1.3167   -2.4157 HC        1 <0>        0.04444
     22 H13        -0.6981   -1.6075   -2.6360 HC        1 <0>        0.04444
     23 H14         0.2505   -2.6648   -1.5729 HC        1 <0>        0.04444
@<TRIPOS>BOND
     1    1    2 1
     2    1    4 1
     3    2    8 1
     4    3    8 1
     5    3    9 1
     6    4    5 1
     7    4    6 1
     8    5    7 1
     9    5    9 1
    10    1   10 1
    11    1   11 1
    12    2   12 1
    13    2   13 1
    14    3   14 1
    15    3   15 1
    16    4   16 1
    17    5   17 1
    18    6   18 1
    19    6   19 1
    20    6   20 1
    21    7   21 1
    22    7   22 1
    23    7   23 1
@<TRIPOS>SUBSTRUCTURE
     1 <0>         1 GROUP 0 A     ****
