@<TRIPOS>MOLECULE
AlkEthOH_r815
   17    17     1     0     0
SMALL
USER_CHARGES

@<TRIPOS>ATOM
      1 C1          0.7462   -0.7961   -0.1113 CT        1 <0>       -0.10061
      2 C2          2.3040    0.3551   -1.4447 CT        1 <0>        0.13227
      3 C3          2.1429   -0.2092   -0.0439 CT        1 <0>       -0.09684
      4 C4          0.7066   -1.3423   -1.5296 CT        1 <0>        0.33111
      5 C5          2.3303    0.8205    1.0544 CT        1 <0>       -0.08781
      6 O1          1.5591   -0.5024   -2.3226 OS        1 <0>       -0.46106
      7 O2          1.1423   -2.6965   -1.5788 OH        1 <0>       -0.62469
      8 H1          0.5715   -1.5567    0.6554 HC        1 <0>        0.06769
      9 H2         -0.0009   -0.0012    0.0020 HC        1 <0>        0.06769
     10 H3          1.8860    1.3639   -1.5350 H1        1 <0>        0.04989
     11 H4          3.3494    0.3837   -1.7657 H1        1 <0>        0.04989
     12 H5          2.8634   -1.0248    0.0989 HC        1 <0>        0.06937
     13 H6         -0.3228   -1.2968   -1.9452 H2        1 <0>        0.06400
     14 H7          1.6211    1.6419    0.9296 HC        1 <0>        0.03905
     15 H8          3.3435    1.2276    1.0239 HC        1 <0>        0.03905
     16 H9          2.1670    0.3649    2.0336 HC        1 <0>        0.03905
     17 H10         1.0893   -2.9717   -2.5076 HO        1 <0>        0.42195
@<TRIPOS>BOND
     1    1    3 1
     2    1    4 1
     3    2    3 1
     4    2    6 1
     5    3    5 1
     6    4    6 1
     7    4    7 1
     8    1    8 1
     9    1    9 1
    10    2   10 1
    11    2   11 1
    12    3   12 1
    13    4   13 1
    14    5   14 1
    15    5   15 1
    16    5   16 1
    17    7   17 1
@<TRIPOS>SUBSTRUCTURE
     1 <0>         1 GROUP 0 A     ****
