@<TRIPOS>MOLECULE
AlkEthOH_r345
   34    34     1     0     0
SMALL
USER_CHARGES

@<TRIPOS>ATOM
      1 C1          0.0051    1.7439    1.9634 CT        1 <0>       -0.07476
      2 C2         -1.2676    1.5431    1.1397 CT        1 <0>       -0.07406
      3 C3          1.3182    1.4312    1.2457 CT        1 <0>       -0.06943
      4 C4         -1.6150    0.0754    0.8699 CT        1 <0>       -0.06757
      5 C5          1.5457   -0.0551    0.9596 CT        1 <0>       -0.10164
      6 C6          0.0296   -0.0405   -1.1688 CT        1 <0>       -0.05125
      7 C7         -1.3491   -0.4431   -0.5669 CT        1 <0>       -0.03940
      8 C8          1.3480   -0.4965   -0.5014 CT        1 <0>        0.15957
      9 C9         -2.4363    0.1406   -1.5076 CT        1 <0>       -0.08737
     10 C10        -1.5361   -1.9743   -0.5643 CT        1 <0>       -0.08737
     11 C11         2.5296    0.0015   -1.3574 CT        1 <0>       -0.12645
     12 O1          1.4280   -1.9263   -0.5118 OH        1 <0>       -0.59777
     13 H1          0.0386    2.7981    2.2682 HC        1 <0>        0.03739
     14 H2         -0.0571    1.1644    2.8929 HC        1 <0>        0.03739
     15 H3         -2.0910    1.9712    1.7273 HC        1 <0>        0.03773
     16 H4         -1.2240    2.1367    0.2215 HC        1 <0>        0.03773
     17 H5          1.4062    2.0423    0.3418 HC        1 <0>        0.03831
     18 H6          2.1269    1.7660    1.9090 HC        1 <0>        0.03831
     19 H7         -1.1343   -0.5705    1.6120 HC        1 <0>        0.03960
     20 H8         -2.6891   -0.0470    1.0733 HC        1 <0>        0.03960
     21 H9          2.5834   -0.2933    1.2371 HC        1 <0>        0.04497
     22 H10         0.9631   -0.6856    1.6395 HC        1 <0>        0.04497
     23 H11         0.0430   -0.4356   -2.1965 HC        1 <0>        0.04661
     24 H12         0.0582    1.0497   -1.2914 HC        1 <0>        0.04661
     25 H13        -2.2539   -0.2189   -2.5103 HC        1 <0>        0.03526
     26 H14        -2.3744    1.2192   -1.4785 HC        1 <0>        0.03526
     27 H15        -3.4054   -0.1894   -1.1609 HC        1 <0>        0.03526
     28 H16        -1.3538   -2.3547   -1.5625 HC        1 <0>        0.03526
     29 H17        -2.5503   -2.2062   -0.2611 HC        1 <0>        0.03526
     30 H18        -0.8330   -2.4154    0.1324 HC        1 <0>        0.03526
     31 H19         2.3817   -0.3139   -2.3839 HC        1 <0>        0.04094
     32 H20         3.4500   -0.4215   -0.9716 HC        1 <0>        0.04094
     33 H21         2.5725    1.0835   -1.3075 HC        1 <0>        0.04094
     34 H22         2.3077   -2.1493   -0.1754 HO        1 <0>        0.39390
@<TRIPOS>BOND
     1    1    2 1
     2    1    3 1
     3    2    4 1
     4    3    5 1
     5    4    7 1
     6    5    8 1
     7    6    7 1
     8    6    8 1
     9    7    9 1
    10    7   10 1
    11    8   11 1
    12    8   12 1
    13    1   13 1
    14    1   14 1
    15    2   15 1
    16    2   16 1
    17    3   17 1
    18    3   18 1
    19    4   19 1
    20    4   20 1
    21    5   21 1
    22    5   22 1
    23    6   23 1
    24    6   24 1
    25    9   25 1
    26    9   26 1
    27    9   27 1
    28   10   28 1
    29   10   29 1
    30   10   30 1
    31   11   31 1
    32   11   32 1
    33   11   33 1
    34   12   34 1
@<TRIPOS>SUBSTRUCTURE
     1 <0>         1 GROUP 0 A     ****
