@<TRIPOS>MOLECULE
AlkEthOH_r648
   25    25     1     0     0
SMALL
USER_CHARGES

@<TRIPOS>ATOM
      1 C1          2.3059   -0.0252   -0.6093 CT        1 <0>       -0.15280
      2 C2          1.7051   -1.2737   -1.2593 CT        1 <0>        0.13672
      3 C3          2.0467    0.0938    0.8940 CT        1 <0>        0.14349
      4 C4         -0.5428   -0.4460   -1.4135 CT        1 <0>        0.10269
      5 C5         -0.2104    0.9035    0.7357 CT        1 <0>        0.34657
      6 C6         -1.2372    0.2370   -0.2149 CT        1 <0>        0.13449
      7 C7         -2.1298   -0.7826    0.5077 CT        1 <0>       -0.11351
      8 O1          0.3255   -1.4857   -0.9751 OS        1 <0>       -0.40137
      9 O2          0.6825   -0.0767    1.2634 OS        1 <0>       -0.43675
     10 O3         -0.8461    1.6022    1.8073 OH        1 <0>       -0.59402
     11 O4         -2.0996    1.2535   -0.7359 OH        1 <0>       -0.59588
     12 H1          3.3871   -0.0097   -0.7903 HC        1 <0>        0.05342
     13 H2          1.9054    0.8629   -1.1095 HC        1 <0>        0.05342
     14 H3          1.8460   -1.2409   -2.3460 H1        1 <0>        0.04877
     15 H4          2.2404   -2.1576   -0.8956 H1        1 <0>        0.04877
     16 H5          2.6142   -0.6840    1.4164 H1        1 <0>        0.04780
     17 H6          2.4059    1.0589    1.2698 H1        1 <0>        0.04780
     18 H7         -1.3016   -0.9045   -2.0597 H1        1 <0>        0.04838
     19 H8         -0.0335    0.2896   -2.0485 H1        1 <0>        0.04838
     20 H9          0.3550    1.6851    0.1685 H2        1 <0>        0.04458
     21 H10        -2.6178   -0.3018    1.3505 HC        1 <0>        0.05684
     22 H11        -1.5200   -1.6077    0.8639 HC        1 <0>        0.05684
     23 H12        -2.8809   -1.1572   -0.1815 HC        1 <0>        0.05684
     24 H13        -0.1348    1.9820    2.3434 HO        1 <0>        0.41157
     25 H14        -2.7333    0.8011   -1.3110 HO        1 <0>        0.40696
@<TRIPOS>BOND
     1    1    2 1
     2    1    3 1
     3    2    8 1
     4    3    9 1
     5    4    6 1
     6    4    8 1
     7    5    6 1
     8    5    9 1
     9    5   10 1
    10    6    7 1
    11    6   11 1
    12    1   12 1
    13    1   13 1
    14    2   14 1
    15    2   15 1
    16    3   16 1
    17    3   17 1
    18    4   18 1
    19    4   19 1
    20    5   20 1
    21    7   21 1
    22    7   22 1
    23    7   23 1
    24   10   24 1
    25   11   25 1
@<TRIPOS>SUBSTRUCTURE
     1 <0>         1 GROUP 0 A     ****
