@<TRIPOS>MOLECULE
AlkEthOH_r359
   28    28     1     0     0
SMALL
USER_CHARGES

@<TRIPOS>ATOM
      1 C1          0.2447   -0.5050    2.1295 CT        1 <0>       -0.07312
      2 C2         -1.2466   -0.5454    1.8200 CT        1 <0>       -0.06517
      3 C3          1.1482   -1.1370    1.0784 CT        1 <0>       -0.06986
      4 C4         -1.6759   -0.3945    0.3623 CT        1 <0>       -0.10933
      5 C5          1.5216   -0.1653   -0.0433 CT        1 <0>       -0.06369
      6 C6         -0.9137    0.6258   -0.4905 CT        1 <0>        0.15796
      7 C7          0.4322    0.1370   -1.1004 CT        1 <0>       -0.04151
      8 C8          0.2133   -1.1006   -1.9982 CT        1 <0>       -0.08921
      9 C9          0.9886    1.2597   -2.0148 CT        1 <0>       -0.08921
     10 O1         -0.7124    1.8251    0.2570 OH        1 <0>       -0.59514
     11 H1          0.5545    0.5310    2.3140 HC        1 <0>        0.04286
     12 H2          0.3978   -1.0271    3.0831 HC        1 <0>        0.04286
     13 H3         -1.6561   -1.4952    2.1884 HC        1 <0>        0.03231
     14 H4         -1.7375    0.2314    2.4208 HC        1 <0>        0.03231
     15 H5          2.0834   -1.4199    1.5793 HC        1 <0>        0.03668
     16 H6          0.7200   -2.0671    0.6920 HC        1 <0>        0.03668
     17 H7         -1.6893   -1.3762   -0.1207 HC        1 <0>        0.04238
     18 H8         -2.7300   -0.0833    0.3873 HC        1 <0>        0.04238
     19 H9          1.8675    0.7740    0.4089 HC        1 <0>        0.04440
     20 H10         2.4002   -0.5783   -0.5587 HC        1 <0>        0.04440
     21 H11        -1.5743    0.8909   -1.3285 H1        1 <0>        0.02260
     22 H12        -0.5506   -0.8719   -2.7306 HC        1 <0>        0.03686
     23 H13        -0.1028   -1.9311   -1.3797 HC        1 <0>        0.03686
     24 H14         1.1440   -1.3418   -2.4959 HC        1 <0>        0.03686
     25 H15         0.2468    1.4927   -2.7656 HC        1 <0>        0.03686
     26 H16         1.8968    0.9059   -2.4820 HC        1 <0>        0.03686
     27 H17         1.1936    2.1298   -1.4071 HC        1 <0>        0.03686
     28 H18        -1.5938    2.1570    0.4857 HO        1 <0>        0.39726
@<TRIPOS>BOND
     1    1    2 1
     2    1    3 1
     3    2    4 1
     4    3    5 1
     5    4    6 1
     6    5    7 1
     7    6    7 1
     8    6   10 1
     9    7    8 1
    10    7    9 1
    11    1   11 1
    12    1   12 1
    13    2   13 1
    14    2   14 1
    15    3   15 1
    16    3   16 1
    17    4   17 1
    18    4   18 1
    19    5   19 1
    20    5   20 1
    21    6   21 1
    22    8   22 1
    23    8   23 1
    24    8   24 1
    25    9   25 1
    26    9   26 1
    27    9   27 1
    28   10   28 1
@<TRIPOS>SUBSTRUCTURE
     1 <0>         1 GROUP 0 A     ****
