@<TRIPOS>MOLECULE
AlkEthOH_r663
   24    24     1     0     0
SMALL
USER_CHARGES

@<TRIPOS>ATOM
      1 C1          0.4758   -1.6589   -1.6003 CT        1 <0>        0.09652
      2 C2          1.0809   -0.2945   -1.8953 CT        1 <0>        0.10424
      3 C3         -0.8534   -1.2429    0.3221 CT        1 <0>        0.13206
      4 C4          0.5539    0.8969    0.0863 CT        1 <0>        0.34609
      5 C5         -0.5460    0.1610    0.8953 CT        1 <0>       -0.08377
      6 C6         -1.8640    0.9633    0.9112 CT        1 <0>       -0.08582
      7 C7         -0.0596    0.0194    2.3536 CT        1 <0>       -0.08582
      8 O1          0.3068   -1.8904   -0.2015 OS        1 <0>       -0.41888
      9 O2          0.3230    0.7674   -1.3179 OS        1 <0>       -0.45010
     10 O3          0.5825    2.2786    0.4466 OH        1 <0>       -0.59934
     11 H1         -0.4807   -1.7852   -2.1211 H1        1 <0>        0.05535
     12 H2          1.1491   -2.4348   -1.9799 H1        1 <0>        0.05535
     13 H3          2.1217   -0.2412   -1.5545 H1        1 <0>        0.05310
     14 H4          1.0926   -0.1367   -2.9790 H1        1 <0>        0.05310
     15 H5         -1.2495   -1.8907    1.1132 H1        1 <0>        0.05373
     16 H6         -1.6402   -1.1977   -0.4420 H1        1 <0>        0.05373
     17 H7          1.5397    0.4931    0.3526 H2        1 <0>        0.04166
     18 H8         -1.6710    1.9520    1.3100 HC        1 <0>        0.04363
     19 H9         -2.5839    0.4477    1.5356 HC        1 <0>        0.04363
     20 H10        -2.2424    1.0411   -0.1012 HC        1 <0>        0.04363
     21 H11         0.1544    1.0042    2.7511 HC        1 <0>        0.04363
     22 H12         0.8372   -0.5880    2.3688 HC        1 <0>        0.04363
     23 H13        -0.8373   -0.4548    2.9402 HC        1 <0>        0.04363
     24 H14         1.2826    2.6853   -0.0856 HO        1 <0>        0.41702
@<TRIPOS>BOND
     1    1    2 1
     2    1    8 1
     3    2    9 1
     4    3    5 1
     5    3    8 1
     6    4    5 1
     7    4    9 1
     8    4   10 1
     9    5    6 1
    10    5    7 1
    11    1   11 1
    12    1   12 1
    13    2   13 1
    14    2   14 1
    15    3   15 1
    16    3   16 1
    17    4   17 1
    18    6   18 1
    19    6   19 1
    20    6   20 1
    21    7   21 1
    22    7   22 1
    23    7   23 1
    24   10   24 1
@<TRIPOS>SUBSTRUCTURE
     1 <0>         1 GROUP 0 A     ****
