@<TRIPOS>MOLECULE
AlkEthOH_r399
   28    28     1     0     0
SMALL
USER_CHARGES

@<TRIPOS>ATOM
      1 C1          1.9213    0.9218   -0.6883 CT        1 <0>       -0.07725
      2 C2          2.0017   -0.5960   -0.8575 CT        1 <0>       -0.06437
      3 C3          1.9709    1.4200    0.7598 CT        1 <0>       -0.09798
      4 C4          0.8398   -1.4419   -0.3281 CT        1 <0>       -0.12454
      5 C5          0.6036    1.7720    1.3388 CT        1 <0>        0.14510
      6 C6         -1.2715    0.3245    0.9605 CT        1 <0>        0.53223
      7 C7         -0.5735   -1.1254   -0.8608 CT        1 <0>        0.36747
      8 C8         -0.6027   -1.1228   -2.3932 CT        1 <0>       -0.11723
      9 O1         -0.0940    0.5950    1.7224 OS        1 <0>       -0.44544
     10 O2         -1.0569    0.1567   -0.4424 OS        1 <0>       -0.47941
     11 O3         -2.3061    1.2808    1.2036 OH        1 <0>       -0.62199
     12 O4         -1.4324   -2.1847   -0.4148 OH        1 <0>       -0.64053
     13 H1          2.8033    1.3325   -1.1990 HC        1 <0>        0.04523
     14 H2          1.0610    1.3360   -1.2235 HC        1 <0>        0.04523
     15 H3          2.1339   -0.8113   -1.9252 HC        1 <0>        0.03546
     16 H4          2.9230   -0.9518   -0.3775 HC        1 <0>        0.03546
     17 H5          2.4810    0.6897    1.3984 HC        1 <0>        0.04910
     18 H6          2.5728    2.3375    0.7728 HC        1 <0>        0.04910
     19 H7          1.0660   -2.4905   -0.5696 HC        1 <0>        0.06237
     20 H8          0.8471   -1.4170    0.7667 HC        1 <0>        0.06237
     21 H9          0.7548    2.3537    2.2548 H1        1 <0>        0.05261
     22 H10         0.0256    2.4009    0.6513 H1        1 <0>        0.05261
     23 H11        -1.6611   -0.6314    1.3668 H3        1 <0>        0.11844
     24 H12        -1.6088   -0.8975   -2.7374 HC        1 <0>        0.05489
     25 H13        -0.3049   -2.1001   -2.7643 HC        1 <0>        0.05489
     26 H14         0.0846   -0.3691   -2.7688 HC        1 <0>        0.05489
     27 H15        -3.0540    1.0163    0.6488 HO        1 <0>        0.43411
     28 H16        -1.0707   -2.9981   -0.7925 HO        1 <0>        0.41718
@<TRIPOS>BOND
     1    1    2 1
     2    1    3 1
     3    2    4 1
     4    3    5 1
     5    4    7 1
     6    5    9 1
     7    6    9 1
     8    6   10 1
     9    6   11 1
    10    7    8 1
    11    7   10 1
    12    7   12 1
    13    1   13 1
    14    1   14 1
    15    2   15 1
    16    2   16 1
    17    3   17 1
    18    3   18 1
    19    4   19 1
    20    4   20 1
    21    5   21 1
    22    5   22 1
    23    6   23 1
    24    8   24 1
    25    8   25 1
    26    8   26 1
    27   11   27 1
    28   12   28 1
@<TRIPOS>SUBSTRUCTURE
     1 <0>         1 GROUP 0 A     ****
