@<TRIPOS>MOLECULE
AlkEthOH_r343
   23    23     1     0     0
SMALL
USER_CHARGES

@<TRIPOS>ATOM
      1 C1          0.8901   -0.4753    0.4277 CT        1 <0>       -0.07225
      2 C2          1.1954    0.1418    1.7888 CT        1 <0>       -0.07212
      3 C3          0.6657   -1.9837    0.5289 CT        1 <0>       -0.10791
      4 C4          2.3708   -0.5541    2.4774 CT        1 <0>       -0.09928
      5 C5          1.8403   -2.6936    1.2139 CT        1 <0>        0.15351
      6 C6          2.1610   -2.0755    2.5892 CT        1 <0>        0.15692
      7 C7          3.3892   -2.7321    3.2278 CT        1 <0>       -0.11539
      8 O1          2.9874   -2.6183    0.3694 OH        1 <0>       -0.60312
      9 O2          1.0425   -2.3255    3.4482 OH        1 <0>       -0.60468
     10 H1         -0.0004   -0.0001    0.0008 HC        1 <0>        0.04148
     11 H2          1.7191   -0.2701   -0.2603 HC        1 <0>        0.04148
     12 H3          1.4224    1.2071    1.6669 HC        1 <0>        0.04230
     13 H4          0.3044    0.0808    2.4254 HC        1 <0>        0.04230
     14 H5         -0.2601   -2.1763    1.0844 HC        1 <0>        0.05178
     15 H6          0.5293   -2.3840   -0.4828 HC        1 <0>        0.05178
     16 H7          3.2908   -0.3384    1.9199 HC        1 <0>        0.05074
     17 H8          2.4863   -0.1170    3.4774 HC        1 <0>        0.05074
     18 H9          1.5812   -3.7528    1.3279 H1        1 <0>        0.04732
     19 H10         3.2315   -3.8052    3.3023 HC        1 <0>        0.04684
     20 H11         3.5465   -2.3213    4.2220 HC        1 <0>        0.04684
     21 H12         4.2661   -2.5384    2.6148 HC        1 <0>        0.04684
     22 H13         2.7481   -3.0599   -0.4598 HO        1 <0>        0.40241
     23 H14         1.2693   -1.9361    4.3045 HO        1 <0>        0.40147
@<TRIPOS>BOND
     1    1    2 1
     2    1    3 1
     3    2    4 1
     4    3    5 1
     5    4    6 1
     6    5    6 1
     7    5    8 1
     8    6    7 1
     9    6    9 1
    10    1   10 1
    11    1   11 1
    12    2   12 1
    13    2   13 1
    14    3   14 1
    15    3   15 1
    16    4   16 1
    17    4   17 1
    18    5   18 1
    19    7   19 1
    20    7   20 1
    21    7   21 1
    22    8   22 1
    23    9   23 1
@<TRIPOS>SUBSTRUCTURE
     1 <0>         1 GROUP 0 A     ****
