@<TRIPOS>MOLECULE
AlkEthOH_r214
   24    24     1     0     0
SMALL
USER_CHARGES

@<TRIPOS>ATOM
      1 C1          2.0586    0.1451   -0.0868 CT        1 <0>        0.09698
      2 C2          1.6206   -1.0830    0.6838 CT        1 <0>        0.10209
      3 C3         -0.2408    0.7409   -0.4631 CT        1 <0>        0.15173
      4 C4         -0.6658   -0.5296    0.3338 CT        1 <0>        0.31488
      5 C5         -0.1984    2.0148    0.4020 CT        1 <0>       -0.10173
      6 C6         -1.1639    1.0099   -1.6635 CT        1 <0>       -0.10173
      7 C7         -1.9663   -0.3446    1.1229 CT        1 <0>       -0.10961
      8 O1          1.0637    0.5128   -1.0399 OS        1 <0>       -0.40103
      9 O2          0.3530   -0.8534    1.2963 OS        1 <0>       -0.45062
     10 O3         -0.8608   -1.6129   -0.5854 OH        1 <0>       -0.60945
     11 H1          2.2546    0.9885    0.5826 H1        1 <0>        0.05451
     12 H2          2.9860   -0.0615   -0.6300 H1        1 <0>        0.05451
     13 H3          1.5509   -1.9582    0.0283 H1        1 <0>        0.05973
     14 H4          2.3430   -1.3149    1.4723 H1        1 <0>        0.05973
     15 H5          0.1031    2.8541   -0.2147 HC        1 <0>        0.05058
     16 H6          0.5156    1.8753    1.2062 HC        1 <0>        0.05058
     17 H7         -1.1845    2.1980    0.8144 HC        1 <0>        0.05058
     18 H8         -0.8264    1.9012   -2.1825 HC        1 <0>        0.05058
     19 H9         -2.1791    1.1562   -1.3092 HC        1 <0>        0.05058
     20 H10        -1.1314    0.1604   -2.3380 HC        1 <0>        0.05058
     21 H11        -2.2043   -1.2633    1.6530 HC        1 <0>        0.05484
     22 H12        -2.7758   -0.1030    0.4388 HC        1 <0>        0.05484
     23 H13        -1.8455    0.4643    1.8390 HC        1 <0>        0.05484
     24 H14        -1.1216   -2.3746   -0.0494 HO        1 <0>        0.41201
@<TRIPOS>BOND
     1    1    2 1
     2    1    8 1
     3    2    9 1
     4    3    4 1
     5    3    5 1
     6    3    6 1
     7    3    8 1
     8    4    7 1
     9    4    9 1
    10    4   10 1
    11    1   11 1
    12    1   12 1
    13    2   13 1
    14    2   14 1
    15    5   15 1
    16    5   16 1
    17    5   17 1
    18    6   18 1
    19    6   19 1
    20    6   20 1
    21    7   21 1
    22    7   22 1
    23    7   23 1
    24   10   24 1
@<TRIPOS>SUBSTRUCTURE
     1 <0>         1 GROUP 0 A     ****
