@<TRIPOS>MOLECULE
AlkEthOH_r1030
   23    23     1     0     0
SMALL
USER_CHARGES

@<TRIPOS>ATOM
      1 C1         -1.2813    1.6574    0.5616 CT        1 <0>       -0.12305
      2 C2          1.0507   -0.4061   -1.1029 CT        1 <0>       -0.14353
      3 C3          0.2219    1.9311    0.5753 CT        1 <0>        0.13207
      4 C4         -1.6927    0.5016   -0.3490 CT        1 <0>        0.13496
      5 C5          1.7762    0.1639    0.1196 CT        1 <0>        0.13977
      6 C6         -0.1638   -1.3010   -0.7985 CT        1 <0>        0.15332
      7 C7          0.2660   -2.6292   -0.1820 CT        1 <0>       -0.09176
      8 O1          0.9208    0.7919    1.0692 OS        1 <0>       -0.40266
      9 O2         -1.0978   -0.7097    0.1066 OS        1 <0>       -0.40632
     10 H1         -1.5904    1.4099    1.5850 HC        1 <0>        0.05709
     11 H2         -1.8138    2.5659    0.2602 HC        1 <0>        0.05709
     12 H3          0.7167    0.4311   -1.7257 HC        1 <0>        0.04729
     13 H4          1.7711   -0.9598   -1.7177 HC        1 <0>        0.04729
     14 H5          0.5800    2.2501   -0.4098 H1        1 <0>        0.03637
     15 H6          0.4220    2.7545    1.2695 H1        1 <0>        0.03637
     16 H7         -2.7780    0.3701   -0.2797 H1        1 <0>        0.03668
     17 H8         -1.4646    0.7161   -1.3988 H1        1 <0>        0.03668
     18 H9          2.2954   -0.6443    0.6451 H1        1 <0>        0.04416
     19 H10         2.5468    0.8772   -0.1964 H1        1 <0>        0.04416
     20 H11        -0.6865   -1.5216   -1.7380 H1        1 <0>        0.02536
     21 H12         0.7900   -2.4497    0.7558 HC        1 <0>        0.04622
     22 H13         0.9301   -3.1567   -0.8653 HC        1 <0>        0.04622
     23 H14        -0.6093   -3.2476    0.0122 HC        1 <0>        0.04622
@<TRIPOS>BOND
     1    1    3 1
     2    1    4 1
     3    2    5 1
     4    2    6 1
     5    3    8 1
     6    4    9 1
     7    5    8 1
     8    6    7 1
     9    6    9 1
    10    1   10 1
    11    1   11 1
    12    2   12 1
    13    2   13 1
    14    3   14 1
    15    3   15 1
    16    4   16 1
    17    4   17 1
    18    5   18 1
    19    5   19 1
    20    6   20 1
    21    7   21 1
    22    7   22 1
    23    7   23 1
@<TRIPOS>SUBSTRUCTURE
     1 <0>         1 GROUP 0 A     ****
