@<TRIPOS>MOLECULE
AlkEthOH_r316
   26    26     1     0     0
SMALL
USER_CHARGES

@<TRIPOS>ATOM
      1 C1          1.8065    0.0124   -0.7036 CT        1 <0>       -0.07420
      2 C2          1.0535   -1.3075   -0.5987 CT        1 <0>       -0.09886
      3 C3          1.4673    0.8948    0.4915 CT        1 <0>       -0.13041
      4 C4         -0.4580   -1.1032   -0.3997 CT        1 <0>        0.16231
      5 C5         -0.0473    1.0813    0.6384 CT        1 <0>        0.34892
      6 C6         -1.0867   -2.4328    0.0461 CT        1 <0>       -0.09892
      7 C7         -1.1544   -0.6662   -1.6965 CT        1 <0>       -0.09892
      8 C8         -0.3507    1.7740    1.9695 CT        1 <0>       -0.11069
      9 O1         -0.7225   -0.1810    0.6671 OS        1 <0>       -0.40462
     10 O2         -0.5076    1.9284   -0.4141 OH        1 <0>       -0.61490
     11 H1          2.8856   -0.1773   -0.7292 HC        1 <0>        0.04667
     12 H2          1.5538    0.5256   -1.6379 HC        1 <0>        0.04667
     13 H3          1.2498   -1.9249   -1.4833 HC        1 <0>        0.04930
     14 H4          1.4623   -1.8513    0.2636 HC        1 <0>        0.04930
     15 H5          1.8719    0.4167    1.3930 HC        1 <0>        0.05219
     16 H6          1.9673    1.8635    0.3741 HC        1 <0>        0.05219
     17 H7         -2.1542   -2.2958    0.1885 HC        1 <0>        0.04473
     18 H8         -0.6326   -2.7501    0.9796 HC        1 <0>        0.04473
     19 H9         -0.9147   -3.1855   -0.7171 HC        1 <0>        0.04473
     20 H10        -2.2160   -0.5344   -1.5093 HC        1 <0>        0.04473
     21 H11        -1.0118   -1.4281   -2.4571 HC        1 <0>        0.04473
     22 H12        -0.7266    0.2720   -2.0374 HC        1 <0>        0.04473
     23 H13        -1.4248    1.9073    2.0758 HC        1 <0>        0.05110
     24 H14         0.1364    2.7460    1.9950 HC        1 <0>        0.05110
     25 H15         0.0191    1.1648    2.7911 HC        1 <0>        0.05110
     26 H16        -0.0374    2.7699   -0.3141 HO        1 <0>        0.40229
@<TRIPOS>BOND
     1    1    2 1
     2    1    3 1
     3    2    4 1
     4    3    5 1
     5    4    6 1
     6    4    7 1
     7    4    9 1
     8    5    8 1
     9    5    9 1
    10    5   10 1
    11    1   11 1
    12    1   12 1
    13    2   13 1
    14    2   14 1
    15    3   15 1
    16    3   16 1
    17    6   17 1
    18    6   18 1
    19    6   19 1
    20    7   20 1
    21    7   21 1
    22    7   22 1
    23    8   23 1
    24    8   24 1
    25    8   25 1
    26   10   26 1
@<TRIPOS>SUBSTRUCTURE
     1 <0>         1 GROUP 0 A     ****
