@<TRIPOS>MOLECULE
AlkEthOH_r880
   31    31     1     0     0
SMALL
USER_CHARGES

@<TRIPOS>ATOM
      1 C1          1.3538    1.7248    0.9033 CT        1 <0>       -0.07271
      2 C2          0.0725    2.2841    0.2861 CT        1 <0>       -0.07013
      3 C3          2.0665    0.6613    0.0576 CT        1 <0>       -0.06775
      4 C4         -1.2240    1.6348    0.7782 CT        1 <0>       -0.08332
      5 C5          1.5447   -0.7718    0.2112 CT        1 <0>       -0.09649
      6 C6         -1.2654    0.1104    0.6573 CT        1 <0>        0.14212
      7 C7          0.3293   -1.1798   -0.6587 CT        1 <0>        0.15753
      8 C8         -2.7019   -0.3934    0.7630 CT        1 <0>       -0.10887
      9 C9         -0.1655   -2.5734   -0.2369 CT        1 <0>       -0.10308
     10 C10         0.7410   -1.2540   -2.1389 CT        1 <0>       -0.10308
     11 O1         -0.7509   -0.2430   -0.6222 OS        1 <0>       -0.41666
     12 H1          2.0540    2.5664    0.9945 HC        1 <0>        0.03557
     13 H2          1.1815    1.3671    1.9248 HC        1 <0>        0.03557
     14 H3          0.0088    3.3509    0.5384 HC        1 <0>        0.04375
     15 H4          0.1240    2.2418   -0.8086 HC        1 <0>        0.04375
     16 H5          2.1057    0.9648   -0.9933 HC        1 <0>        0.04072
     17 H6          3.1112    0.6471    0.3980 HC        1 <0>        0.04072
     18 H7         -1.4089    1.9184    1.8219 HC        1 <0>        0.04157
     19 H8         -2.0419    2.0732    0.1912 HC        1 <0>        0.04157
     20 H9          2.3718   -1.4545   -0.0302 HC        1 <0>        0.04149
     21 H10         1.3362   -0.9512    1.2731 HC        1 <0>        0.04149
     22 H11        -0.6887   -0.3303    1.4755 H1        1 <0>        0.04136
     23 H12        -3.3029    0.0294   -0.0411 HC        1 <0>        0.04062
     24 H13        -3.1290   -0.0967    1.7200 HC        1 <0>        0.04062
     25 H14        -2.7199   -1.4799    0.6869 HC        1 <0>        0.04062
     26 H15        -1.0163   -2.8524   -0.8500 HC        1 <0>        0.04217
     27 H16        -0.4607   -2.5482    0.8071 HC        1 <0>        0.04217
     28 H17         0.6344   -3.2941   -0.3728 HC        1 <0>        0.04217
     29 H18        -0.1187   -1.5404   -2.7359 HC        1 <0>        0.04217
     30 H19         1.5282   -1.9917   -2.2552 HC        1 <0>        0.04217
     31 H20         1.1010   -0.2819   -2.4598 HC        1 <0>        0.04217
@<TRIPOS>BOND
     1    1    2 1
     2    1    3 1
     3    2    4 1
     4    3    5 1
     5    4    6 1
     6    5    7 1
     7    6    8 1
     8    6   11 1
     9    7    9 1
    10    7   10 1
    11    7   11 1
    12    1   12 1
    13    1   13 1
    14    2   14 1
    15    2   15 1
    16    3   16 1
    17    3   17 1
    18    4   18 1
    19    4   19 1
    20    5   20 1
    21    5   21 1
    22    6   22 1
    23    8   23 1
    24    8   24 1
    25    8   25 1
    26    9   26 1
    27    9   27 1
    28    9   28 1
    29   10   29 1
    30   10   30 1
    31   10   31 1
@<TRIPOS>SUBSTRUCTURE
     1 <0>         1 GROUP 0 A     ****
