@<TRIPOS>MOLECULE
AlkEthOH_r1012
   19    19     1     0     0
SMALL
USER_CHARGES

@<TRIPOS>ATOM
      1 C1         -0.6714   -0.8504   -0.1627 CT        1 <0>       -0.10965
      2 C2         -0.9213   -3.3414   -0.0011 CT        1 <0>       -0.10965
      3 C3         -0.9914   -0.9854   -1.6465 CT        1 <0>        0.12664
      4 C4         -1.2277   -3.3369   -1.4939 CT        1 <0>        0.12664
      5 C5         -0.0447   -2.1416    0.3755 CT        1 <0>       -0.06529
      6 C6          0.1640   -2.0647    1.8853 CT        1 <0>       -0.08900
      7 O1         -1.8411   -2.1078   -1.8808 OS        1 <0>       -0.41502
      8 H1         -0.0002    0.0002    0.0002 HC        1 <0>        0.05067
      9 H2         -1.6014   -0.6467    0.3834 HC        1 <0>        0.05067
     10 H3         -1.8658   -3.2866    0.5551 HC        1 <0>        0.05067
     11 H4         -0.4287   -4.2798    0.2771 HC        1 <0>        0.05067
     12 H5         -1.5166   -0.0909   -1.9963 H1        1 <0>        0.04527
     13 H6         -0.0780   -1.0877   -2.2440 H1        1 <0>        0.04527
     14 H7         -0.3198   -3.4947   -2.0879 H1        1 <0>        0.04527
     15 H8         -1.9239   -4.1470   -1.7330 H1        1 <0>        0.04527
     16 H9          0.9385   -2.2709   -0.0964 HC        1 <0>        0.04603
     17 H10        -0.7949   -1.9361    2.3856 HC        1 <0>        0.03518
     18 H11         0.8076   -1.2202    2.1276 HC        1 <0>        0.03518
     19 H12         0.6310   -2.9819    2.2418 HC        1 <0>        0.03518
@<TRIPOS>BOND
     1    1    3 1
     2    1    5 1
     3    2    4 1
     4    2    5 1
     5    3    7 1
     6    4    7 1
     7    5    6 1
     8    1    8 1
     9    1    9 1
    10    2   10 1
    11    2   11 1
    12    3   12 1
    13    3   13 1
    14    4   14 1
    15    4   15 1
    16    5   16 1
    17    6   17 1
    18    6   18 1
    19    6   19 1
@<TRIPOS>SUBSTRUCTURE
     1 <0>         1 GROUP 0 A     ****
