@<TRIPOS>MOLECULE
AlkEthOH_r604
   18    18     1     0     0
SMALL
USER_CHARGES

@<TRIPOS>ATOM
      1 C1         -1.5211   -0.2362   -0.2983 CT        1 <0>        0.09818
      2 C2         -0.0629   -0.1837   -0.7819 CT        1 <0>        0.11830
      3 C3          0.2471    0.1973    0.6953 CT        1 <0>        0.32501
      4 C4          0.4672   -1.5276   -1.2625 CT        1 <0>       -0.11465
      5 C5          0.5356    1.6662    0.9789 CT        1 <0>       -0.10972
      6 O1         -1.1162   -0.1227    1.0849 OS        1 <0>       -0.44677
      7 O2          0.2155    0.8245   -1.7751 OH        1 <0>       -0.58248
      8 O3          1.2348   -0.6179    1.3589 OH        1 <0>       -0.59022
      9 H1         -2.1498    0.6090   -0.5970 H1        1 <0>        0.06210
     10 H2         -2.0604   -1.1695   -0.4853 H1        1 <0>        0.06210
     11 H3          1.5018   -1.4255   -1.5912 HC        1 <0>        0.05777
     12 H4         -0.1340   -1.8898   -2.0970 HC        1 <0>        0.05777
     13 H5          0.4242   -2.2574   -0.4535 HC        1 <0>        0.05777
     14 H6          0.7369    1.8083    2.0407 HC        1 <0>        0.05792
     15 H7         -0.3228    2.2759    0.6969 HC        1 <0>        0.05792
     16 H8          1.4046    1.9925    0.4073 HC        1 <0>        0.05792
     17 H9         -0.3538    0.6135   -2.5252 HO        1 <0>        0.41007
     18 H10         1.3105   -0.2581    2.2511 HO        1 <0>        0.42101
@<TRIPOS>BOND
     1    1    2 1
     2    1    6 1
     3    2    3 1
     4    2    4 1
     5    2    7 1
     6    3    5 1
     7    3    6 1
     8    3    8 1
     9    1    9 1
    10    1   10 1
    11    4   11 1
    12    4   12 1
    13    4   13 1
    14    5   14 1
    15    5   15 1
    16    5   16 1
    17    7   17 1
    18    8   18 1
@<TRIPOS>SUBSTRUCTURE
     1 <0>         1 GROUP 0 A     ****
