@<TRIPOS>MOLECULE
AlkEthOH_r425
   31    31     1     0     0
SMALL
USER_CHARGES

@<TRIPOS>ATOM
      1 C1          2.0816    0.4812   -0.4811 CT        1 <0>       -0.06881
      2 C2          2.2179   -0.9249    0.0799 CT        1 <0>       -0.10909
      3 C3          1.0475    1.3231    0.2684 CT        1 <0>       -0.06814
      4 C4          1.1082   -1.8904   -0.3118 CT        1 <0>        0.13828
      5 C5         -0.4529    1.0325   -0.0284 CT        1 <0>       -0.05537
      6 C6         -0.8482   -0.4765    0.2321 CT        1 <0>        0.16728
      7 C7         -0.7318    1.4357   -1.5010 CT        1 <0>       -0.08750
      8 C8         -1.2698    2.0015    0.8631 CT        1 <0>       -0.08750
      9 C9         -0.6977   -0.9150    1.7037 CT        1 <0>       -0.10567
     10 C10        -2.3260   -0.7534   -0.1379 CT        1 <0>       -0.10567
     11 O1         -0.1288   -1.3139   -0.6869 OS        1 <0>       -0.42167
     12 H1          3.0536    0.9775   -0.3615 HC        1 <0>        0.04620
     13 H2          1.8861    0.4567   -1.5578 HC        1 <0>        0.04620
     14 H3          3.1729   -1.3549   -0.2485 HC        1 <0>        0.03959
     15 H4          2.2975   -0.8776    1.1722 HC        1 <0>        0.03959
     16 H5          1.2363    1.2441    1.3468 HC        1 <0>        0.03627
     17 H6          1.2513    2.3753    0.0233 HC        1 <0>        0.03627
     18 H7          1.4460   -2.4509   -1.1917 H1        1 <0>        0.04143
     19 H8          0.9556   -2.6444    0.4684 H1        1 <0>        0.04143
     20 H9         -1.7714    1.2390   -1.7210 HC        1 <0>        0.03615
     21 H10        -0.0938    0.8481   -2.1456 HC        1 <0>        0.03615
     22 H11        -0.5159    2.4883   -1.6167 HC        1 <0>        0.03615
     23 H12        -2.3230    1.8311    0.6861 HC        1 <0>        0.03615
     24 H13        -1.0066    3.0176    0.6027 HC        1 <0>        0.03615
     25 H14        -1.0284    1.8064    1.8991 HC        1 <0>        0.03615
     26 H15        -0.9872   -1.9553    1.7939 HC        1 <0>        0.04333
     27 H16        -1.3384   -0.2988    2.3233 HC        1 <0>        0.04333
     28 H17         0.3359   -0.7922    2.0051 HC        1 <0>        0.04333
     29 H18        -2.5446   -1.7946    0.0580 HC        1 <0>        0.04333
     30 H19        -2.4690   -0.5334   -1.1874 HC        1 <0>        0.04333
     31 H20        -2.9608   -0.1189    0.4661 HC        1 <0>        0.04333
@<TRIPOS>BOND
     1    1    2 1
     2    1    3 1
     3    2    4 1
     4    3    5 1
     5    4   11 1
     6    5    6 1
     7    5    7 1
     8    5    8 1
     9    6    9 1
    10    6   10 1
    11    6   11 1
    12    1   12 1
    13    1   13 1
    14    2   14 1
    15    2   15 1
    16    3   16 1
    17    3   17 1
    18    4   18 1
    19    4   19 1
    20    7   20 1
    21    7   21 1
    22    7   22 1
    23    8   23 1
    24    8   24 1
    25    8   25 1
    26    9   26 1
    27    9   27 1
    28    9   28 1
    29   10   29 1
    30   10   30 1
    31   10   31 1
@<TRIPOS>SUBSTRUCTURE
     1 <0>         1 GROUP 0 A     ****
