@<TRIPOS>MOLECULE
AlkEthOH_r146
   21    21     1     0     0
SMALL
USER_CHARGES

@<TRIPOS>ATOM
      1 C1          2.0849    0.1437    0.0520 CT        1 <0>       -0.12580
      2 C2         -1.3050   -0.7562    0.3509 CT        1 <0>       -0.17797
      3 C3          1.4472   -0.2342    1.3877 CT        1 <0>        0.13015
      4 C4          1.1630   -0.0475   -1.1513 CT        1 <0>        0.13728
      5 C5         -0.9279   -0.0790    1.6682 CT        1 <0>        0.14126
      6 C6         -1.2271    0.1590   -0.8771 CT        1 <0>        0.34539
      7 O1          0.3224    0.6015    1.6426 OS        1 <0>       -0.40579
      8 O2          0.0311    0.8109   -1.0424 OS        1 <0>       -0.39372
      9 O3         -1.5886   -0.5982   -2.0305 OH        1 <0>       -0.62763
     10 H1          2.3692    1.2025    0.0981 HC        1 <0>        0.05872
     11 H2          2.9982   -0.4435   -0.0930 HC        1 <0>        0.05872
     12 H3         -0.6670   -1.6332    0.1941 HC        1 <0>        0.05614
     13 H4         -2.3212   -1.1628    0.4323 HC        1 <0>        0.05614
     14 H5          1.1970   -1.3003    1.4260 H1        1 <0>        0.03825
     15 H6          2.1721   -0.0477    2.1875 H1        1 <0>        0.03825
     16 H7          1.7036    0.2541   -2.0552 H1        1 <0>        0.04907
     17 H8          0.8886   -1.0995   -1.2830 H1        1 <0>        0.04907
     18 H9         -1.6890    0.6690    1.9161 H1        1 <0>        0.04692
     19 H10        -0.9232   -0.8102    2.4850 H1        1 <0>        0.04692
     20 H11        -1.9763    0.9504   -0.7601 H2        1 <0>        0.07148
     21 H12        -2.4934   -0.9123   -1.8808 HO        1 <0>        0.40715
@<TRIPOS>BOND
     1    1    3 1
     2    1    4 1
     3    2    5 1
     4    2    6 1
     5    3    7 1
     6    4    8 1
     7    5    7 1
     8    6    8 1
     9    6    9 1
    10    1   10 1
    11    1   11 1
    12    2   12 1
    13    2   13 1
    14    3   14 1
    15    3   15 1
    16    4   16 1
    17    4   17 1
    18    5   18 1
    19    5   19 1
    20    6   20 1
    21    9   21 1
@<TRIPOS>SUBSTRUCTURE
     1 <0>         1 GROUP 0 A     ****
