@<TRIPOS>MOLECULE
AlkEthOH_r428
   25    25     1     0     0
SMALL
USER_CHARGES

@<TRIPOS>ATOM
      1 C1         -1.0726    1.4484    0.1979 CT        1 <0>       -0.06939
      2 C2         -1.2035    0.8181    1.5813 CT        1 <0>       -0.11152
      3 C3         -1.0450    0.4067   -0.9255 CT        1 <0>       -0.06708
      4 C4          0.1115    0.3303    2.1807 CT        1 <0>        0.13197
      5 C5          0.5890   -1.1194    0.3336 CT        1 <0>        0.13810
      6 C6          0.2187   -0.4829   -1.0224 CT        1 <0>       -0.07737
      7 C7          1.4013    0.3499   -1.5581 CT        1 <0>       -0.08520
      8 C8         -0.0676   -1.6147   -2.0300 CT        1 <0>       -0.08520
      9 O1          1.0683   -0.1363    1.2426 OS        1 <0>       -0.41617
     10 H1         -1.9557    2.0794    0.0342 HC        1 <0>        0.04640
     11 H2         -0.2056    2.1157    0.1498 HC        1 <0>        0.04640
     12 H3         -1.6475    1.5421    2.2757 HC        1 <0>        0.04263
     13 H4         -1.9131   -0.0175    1.5356 HC        1 <0>        0.04263
     14 H5         -1.9302   -0.2351   -0.8162 HC        1 <0>        0.03728
     15 H6         -1.1820    0.9334   -1.8799 HC        1 <0>        0.03728
     16 H7          0.5868    1.1597    2.7163 H1        1 <0>        0.04179
     17 H8         -0.0770   -0.4527    2.9245 H1        1 <0>        0.04179
     18 H9         -0.2425   -1.6932    0.7621 H1        1 <0>        0.04435
     19 H10         1.4132   -1.8279    0.1873 H1        1 <0>        0.04435
     20 H11         2.2793   -0.2823   -1.6217 HC        1 <0>        0.03616
     21 H12         1.5893    1.1744   -0.8804 HC        1 <0>        0.03616
     22 H13         1.1495    0.7307   -2.5410 HC        1 <0>        0.03616
     23 H14         0.8084   -2.2478   -2.1100 HC        1 <0>        0.03616
     24 H15        -0.2966   -1.1795   -2.9959 HC        1 <0>        0.03616
     25 H16        -0.9118   -2.1966   -1.6787 HC        1 <0>        0.03616
@<TRIPOS>BOND
     1    1    2 1
     2    1    3 1
     3    2    4 1
     4    3    6 1
     5    4    9 1
     6    5    6 1
     7    5    9 1
     8    6    7 1
     9    6    8 1
    10    1   10 1
    11    1   11 1
    12    2   12 1
    13    2   13 1
    14    3   14 1
    15    3   15 1
    16    4   16 1
    17    4   17 1
    18    5   18 1
    19    5   19 1
    20    7   20 1
    21    7   21 1
    22    7   22 1
    23    8   23 1
    24    8   24 1
    25    8   25 1
@<TRIPOS>SUBSTRUCTURE
     1 <0>         1 GROUP 0 A     ****
