@<TRIPOS>MOLECULE
AlkEthOH_r496
   26    26     1     0     0
SMALL
USER_CHARGES

@<TRIPOS>ATOM
      1 C1          1.0660    0.2222    1.5966 CT        1 <0>       -0.09888
      2 C2         -0.8887   -1.1952   -1.1376 CT        1 <0>       -0.09888
      3 C3         -0.2714    0.7937    1.1272 CT        1 <0>       -0.08037
      4 C4         -0.1766    0.1370   -1.4067 CT        1 <0>       -0.08037
      5 C5          1.4875   -1.0875    0.9448 CT        1 <0>        0.13065
      6 C6         -0.0036   -2.2690   -0.5002 CT        1 <0>        0.13065
      7 C7         -0.3897    1.2355   -0.3427 CT        1 <0>        0.15568
      8 C8          0.5387    2.4214   -0.6355 CT        1 <0>       -0.12299
      9 O1          0.3782   -1.9720    0.8380 OS        1 <0>       -0.41870
     10 O2         -1.7403    1.7139   -0.4838 OH        1 <0>       -0.60440
     11 H1          1.8673    0.9618    1.4929 HC        1 <0>        0.05086
     12 H2          0.9655    0.0377    2.6747 HC        1 <0>        0.05086
     13 H3         -1.7865   -1.0361   -0.5304 HC        1 <0>        0.05086
     14 H4         -1.2309   -1.5936   -2.1014 HC        1 <0>        0.05086
     15 H5         -1.0769    0.0883    1.3695 HC        1 <0>        0.04989
     16 H6         -0.4976    1.6636    1.7614 HC        1 <0>        0.04989
     17 H7          0.8885   -0.0318   -1.5955 HC        1 <0>        0.04989
     18 H8         -0.5776    0.5177   -2.3572 HC        1 <0>        0.04989
     19 H9          1.9867   -0.9162   -0.0136 H1        1 <0>        0.04102
     20 H10         2.2308   -1.5750    1.5860 H1        1 <0>        0.04102
     21 H11        -0.5837   -3.1976   -0.4538 H1        1 <0>        0.04102
     22 H12         0.8775   -2.4858   -1.1163 H1        1 <0>        0.04102
     23 H13         0.4362    2.7129   -1.6771 HC        1 <0>        0.04156
     24 H14         1.5675    2.1327   -0.4398 HC        1 <0>        0.04156
     25 H15         0.2695    3.2582    0.0030 HC        1 <0>        0.04156
     26 H16        -1.8253    2.4452    0.1412 HO        1 <0>        0.39585
@<TRIPOS>BOND
     1    1    3 1
     2    1    5 1
     3    2    4 1
     4    2    6 1
     5    3    7 1
     6    4    7 1
     7    5    9 1
     8    6    9 1
     9    7    8 1
    10    7   10 1
    11    1   11 1
    12    1   12 1
    13    2   13 1
    14    2   14 1
    15    3   15 1
    16    3   16 1
    17    4   17 1
    18    4   18 1
    19    5   19 1
    20    5   20 1
    21    6   21 1
    22    6   22 1
    23    8   23 1
    24    8   24 1
    25    8   25 1
    26   10   26 1
@<TRIPOS>SUBSTRUCTURE
     1 <0>         1 GROUP 0 A     ****
