@<TRIPOS>MOLECULE
AlkEthOH_r74
   21    21     1     0     0
SMALL
USER_CHARGES

@<TRIPOS>ATOM
      1 C1         -0.4399    0.7601   -1.7423 CT        1 <0>       -0.07774
      2 C2         -1.2700   -0.5141   -1.6050 CT        1 <0>       -0.11352
      3 C3         -0.4724    1.6228   -0.4769 CT        1 <0>       -0.11122
      4 C4         -0.5573   -1.6625   -0.8959 CT        1 <0>        0.14279
      5 C5          0.2706    1.0509    0.7328 CT        1 <0>        0.09177
      6 C6         -0.1052   -0.3912    1.0825 CT        1 <0>        0.35461
      7 O1          0.3943   -1.2673    0.0797 OS        1 <0>       -0.43796
      8 O2          1.6790    1.1066    0.4880 OH        1 <0>       -0.58102
      9 O3          0.5009   -0.7053    2.3371 OH        1 <0>       -0.60225
     10 H1          0.5902    0.5285   -2.0362 HC        1 <0>        0.05333
     11 H2         -0.8709    1.3560   -2.5567 HC        1 <0>        0.05333
     12 H3         -2.2028   -0.2852   -1.0740 HC        1 <0>        0.04651
     13 H4         -1.5763   -0.8639   -2.5985 HC        1 <0>        0.04651
     14 H5         -0.0301    2.5955   -0.7286 HC        1 <0>        0.04671
     15 H6         -1.5167    1.8126   -0.1989 HC        1 <0>        0.04671
     16 H7         -1.2868   -2.3413   -0.4390 H1        1 <0>        0.04757
     17 H8         -0.0080   -2.2507   -1.6396 H1        1 <0>        0.04757
     18 H9          0.0822    1.6960    1.5992 H1        1 <0>        0.04766
     19 H10        -1.1905   -0.4935    1.2120 H2        1 <0>        0.06884
     20 H11         1.8945    2.0413    0.3547 HO        1 <0>        0.39723
     21 H12         0.2515   -1.6194    2.5397 HO        1 <0>        0.43257
@<TRIPOS>BOND
     1    1    2 1
     2    1    3 1
     3    2    4 1
     4    3    5 1
     5    4    7 1
     6    5    6 1
     7    5    8 1
     8    6    7 1
     9    6    9 1
    10    1   10 1
    11    1   11 1
    12    2   12 1
    13    2   13 1
    14    3   14 1
    15    3   15 1
    16    4   16 1
    17    4   17 1
    18    5   18 1
    19    6   19 1
    20    8   20 1
    21    9   21 1
@<TRIPOS>SUBSTRUCTURE
     1 <0>         1 GROUP 0 A     ****
