@<TRIPOS>MOLECULE
AlkEthOH_r726
   20    20     1     0     0
SMALL
USER_CHARGES

@<TRIPOS>ATOM
      1 C1         -1.5967    1.2750   -0.1033 CT        1 <0>        0.11391
      2 C2         -1.8622   -0.0968   -0.7014 CT        1 <0>        0.11335
      3 C3          0.5765    1.1336    0.8770 CT        1 <0>        0.55069
      4 C4          0.4479   -0.7946   -0.5853 CT        1 <0>        0.54091
      5 C5          1.4395   -1.5016   -1.5178 CT        1 <0>       -0.09528
      6 O1         -0.8351    1.1133    1.0874 OS        1 <0>       -0.47201
      7 O2         -0.7323   -0.6276   -1.3852 OS        1 <0>       -0.45548
      8 O3          1.0759    0.4556   -0.2773 OS        1 <0>       -0.49594
      9 O4          1.2479    0.6784    2.0534 OH        1 <0>       -0.60181
     10 O5          0.2384   -1.6353    0.5525 OH        1 <0>       -0.63898
     11 H1         -1.0957    1.9516   -0.8049 H1        1 <0>        0.06321
     12 H2         -2.5494    1.7269    0.1901 H1        1 <0>        0.06321
     13 H3         -2.1912   -0.8126    0.0598 H1        1 <0>        0.06354
     14 H4         -2.6622   -0.0142   -1.4443 H1        1 <0>        0.06354
     15 H5          0.8580    2.1858    0.7455 H3        1 <0>        0.11927
     16 H6          2.3763   -1.6730   -0.9927 HC        1 <0>        0.06580
     17 H7          1.6254   -0.8813   -2.3915 HC        1 <0>        0.06580
     18 H8          1.0256   -2.4558   -1.8355 HC        1 <0>        0.06580
     19 H9          0.9962    1.2872    2.7637 HO        1 <0>        0.44125
     20 H10        -0.1205   -2.4697    0.2145 HO        1 <0>        0.42922
@<TRIPOS>BOND
     1    1    2 1
     2    1    6 1
     3    2    7 1
     4    3    6 1
     5    3    8 1
     6    3    9 1
     7    4    5 1
     8    4    7 1
     9    4    8 1
    10    4   10 1
    11    1   11 1
    12    1   12 1
    13    2   13 1
    14    2   14 1
    15    3   15 1
    16    5   16 1
    17    5   17 1
    18    5   18 1
    19    9   19 1
    20   10   20 1
@<TRIPOS>SUBSTRUCTURE
     1 <0>         1 GROUP 0 A     ****
