@<TRIPOS>MOLECULE
AlkEthOH_r135
   25    25     1     0     0
SMALL
USER_CHARGES

@<TRIPOS>ATOM
      1 C1         -1.0038    0.9660    1.6969 CT        1 <0>       -0.14591
      2 C2          1.2609   -0.4608   -0.9176 CT        1 <0>       -0.15211
      3 C3         -2.0563    0.9270    0.5875 CT        1 <0>        0.13000
      4 C4         -0.5124   -0.4177    2.1265 CT        1 <0>        0.14980
      5 C5         -1.0273    0.5734   -1.5595 CT        1 <0>        0.09877
      6 C6          0.4729    0.7903   -1.3395 CT        1 <0>        0.11300
      7 C7          1.2962   -0.7209    0.5924 CT        1 <0>        0.33565
      8 O1         -1.7346    0.0208   -0.4619 OS        1 <0>       -0.39506
      9 O2          0.0199   -1.1645    1.0357 OS        1 <0>       -0.43525
     10 O3          1.0211    1.2307   -2.5888 OH        1 <0>       -0.59336
     11 O4          2.2634   -1.7443    0.8283 OH        1 <0>       -0.60659
     12 H1         -0.1535    1.5640    1.3598 HC        1 <0>        0.04840
     13 H2         -1.4190    1.4913    2.5649 HC        1 <0>        0.04840
     14 H3          0.8611   -1.3400   -1.4400 HC        1 <0>        0.07018
     15 H4          2.2964   -0.3667   -1.2731 HC        1 <0>        0.07018
     16 H5         -2.9956    0.5673    1.0229 H1        1 <0>        0.04747
     17 H6         -2.2547    1.9327    0.1994 H1        1 <0>        0.04747
     18 H7          0.2334   -0.3394    2.9261 H1        1 <0>        0.05144
     19 H8         -1.3557   -0.9910    2.5267 H1        1 <0>        0.05144
     20 H9         -1.5076    1.5034   -1.8896 H1        1 <0>        0.05246
     21 H10        -1.1577   -0.1225   -2.3977 H1        1 <0>        0.05246
     22 H11         0.6509    1.5969   -0.6239 H1        1 <0>        0.07442
     23 H12         1.6384    0.1802    1.1152 H2        1 <0>        0.07642
     24 H13         0.9011    0.4967   -3.2075 HO        1 <0>        0.39889
     25 H14         3.1089   -1.4025    0.5008 HO        1 <0>        0.41143
@<TRIPOS>BOND
     1    1    3 1
     2    1    4 1
     3    2    6 1
     4    2    7 1
     5    3    8 1
     6    4    9 1
     7    5    6 1
     8    5    8 1
     9    6   10 1
    10    7    9 1
    11    7   11 1
    12    1   12 1
    13    1   13 1
    14    2   14 1
    15    2   15 1
    16    3   16 1
    17    3   17 1
    18    4   18 1
    19    4   19 1
    20    5   20 1
    21    5   21 1
    22    6   22 1
    23    7   23 1
    24   10   24 1
    25   11   25 1
@<TRIPOS>SUBSTRUCTURE
     1 <0>         1 GROUP 0 A     ****
