@<TRIPOS>MOLECULE
AlkEthOH_r148
   17    17     1     0     0
SMALL
USER_CHARGES

@<TRIPOS>ATOM
      1 C1         -0.4360   -0.5048   -0.8720 CT        1 <0>       -0.13116
      2 C2         -0.4432   -2.7664    0.2059 CT        1 <0>       -0.13116
      3 C3         -1.9531   -0.5154   -0.7493 CT        1 <0>        0.12824
      4 C4         -1.9599   -2.6560    0.2712 CT        1 <0>        0.12824
      5 C5          0.1087   -1.9282   -0.9444 CT        1 <0>        0.14299
      6 O1         -2.3634   -1.2903    0.3779 OS        1 <0>       -0.41213
      7 O2          1.5284   -1.8871   -0.8816 OH        1 <0>       -0.59594
      8 H1         -0.1206    0.0695   -1.7505 HC        1 <0>        0.06163
      9 H2         -0.0001    0.0004   -0.0002 HC        1 <0>        0.06163
     10 H3         -0.0066   -2.4104    1.1481 HC        1 <0>        0.06163
     11 H4         -0.1350   -3.8125    0.0984 HC        1 <0>        0.06163
     12 H5         -2.3224    0.5047   -0.6045 H1        1 <0>        0.04829
     13 H6         -2.4244   -0.9130   -1.6558 H1        1 <0>        0.04829
     14 H7         -2.4310   -3.1069   -0.6101 H1        1 <0>        0.04829
     15 H8         -2.3347   -3.1845    1.1534 H1        1 <0>        0.04829
     16 H9         -0.1736   -2.3790   -1.9034 H1        1 <0>        0.03152
     17 H10         1.8372   -2.8061   -0.9302 HO        1 <0>        0.39972
@<TRIPOS>BOND
     1    1    3 1
     2    1    5 1
     3    2    4 1
     4    2    5 1
     5    3    6 1
     6    4    6 1
     7    5    7 1
     8    1    8 1
     9    1    9 1
    10    2   10 1
    11    2   11 1
    12    3   12 1
    13    3   13 1
    14    4   14 1
    15    4   15 1
    16    5   16 1
    17    7   17 1
@<TRIPOS>SUBSTRUCTURE
     1 <0>         1 GROUP 0 A     ****
