@<TRIPOS>MOLECULE
AlkEthOH_r983
   25    25     1     0     0
SMALL
USER_CHARGES

@<TRIPOS>ATOM
      1 C1         -0.2998   -1.3230   -1.2238 CT        1 <0>       -0.10360
      2 C2          1.1423    1.5784    0.2073 CT        1 <0>       -0.10360
      3 C3         -0.4868   -1.5729    0.2741 CT        1 <0>       -0.06621
      4 C4          1.2377    0.2340    0.9442 CT        1 <0>       -0.06621
      5 C5         -1.0730   -0.1336   -1.7876 CT        1 <0>        0.13263
      6 C6          0.5500    1.5214   -1.1966 CT        1 <0>        0.13263
      7 C7         -0.1253   -0.4262    1.2419 CT        1 <0>       -0.06529
      8 C8         -0.1384   -0.9785    2.6753 CT        1 <0>       -0.09131
      9 O1         -0.8067    1.1004   -1.1348 OS        1 <0>       -0.42068
     10 H1          0.7685   -1.2182   -1.4388 HC        1 <0>        0.04498
     11 H2         -0.6193   -2.2231   -1.7640 HC        1 <0>        0.04498
     12 H3          0.5420    2.2629    0.8200 HC        1 <0>        0.04498
     13 H4          2.1486    2.0092    0.1425 HC        1 <0>        0.04498
     14 H5         -1.5320   -1.8595    0.4513 HC        1 <0>        0.03626
     15 H6          0.1128   -2.4567    0.5307 HC        1 <0>        0.03626
     16 H7          1.8941   -0.4497    0.3938 HC        1 <0>        0.03626
     17 H8          1.7565    0.4404    1.8897 HC        1 <0>        0.03626
     18 H9         -0.8674   -0.0221   -2.8588 H1        1 <0>        0.04046
     19 H10        -2.1477   -0.3216   -1.6882 H1        1 <0>        0.04046
     20 H11         0.5496    2.5335   -1.6161 H1        1 <0>        0.04046
     21 H12         1.1589    0.9041   -1.8661 H1        1 <0>        0.04046
     22 H13        -0.9175    0.3312    1.2043 HC        1 <0>        0.06980
     23 H14         0.6304   -1.7386    2.7755 HC        1 <0>        0.03168
     24 H15        -1.1104   -1.4148    2.8843 HC        1 <0>        0.03168
     25 H16         0.0556   -0.1706    3.3744 HC        1 <0>        0.03168
@<TRIPOS>BOND
     1    1    3 1
     2    1    5 1
     3    2    4 1
     4    2    6 1
     5    3    7 1
     6    4    7 1
     7    5    9 1
     8    6    9 1
     9    7    8 1
    10    1   10 1
    11    1   11 1
    12    2   12 1
    13    2   13 1
    14    3   14 1
    15    3   15 1
    16    4   16 1
    17    4   17 1
    18    5   18 1
    19    5   19 1
    20    6   20 1
    21    6   21 1
    22    7   22 1
    23    8   23 1
    24    8   24 1
    25    8   25 1
@<TRIPOS>SUBSTRUCTURE
     1 <0>         1 GROUP 0 A     ****
