@<TRIPOS>MOLECULE
AlkEthOH_r947
   31    31     1     0     0
SMALL
USER_CHARGES

@<TRIPOS>ATOM
      1 C1         -1.3342    0.1914   -1.7224 CT        1 <0>       -0.07150
      2 C2         -1.3863   -1.3314   -1.5872 CT        1 <0>       -0.11003
      3 C3         -1.4515    0.9817   -0.4150 CT        1 <0>       -0.07046
      4 C4         -0.0192   -2.0134   -1.5229 CT        1 <0>        0.13308
      5 C5          1.3944   -0.4448   -0.4130 CT        1 <0>        0.13172
      6 C6         -0.6639    0.5167    0.8340 CT        1 <0>       -0.05219
      7 C7          0.9053    0.5095    0.7045 CT        1 <0>       -0.05741
      8 C8         -1.1647    1.3643    2.0241 CT        1 <0>       -0.09281
      9 C9          1.4766    1.9105    0.4126 CT        1 <0>       -0.08816
     10 C10         1.5321    0.0087    2.0311 CT        1 <0>       -0.08816
     11 O1          0.7113   -1.6931   -0.3458 OS        1 <0>       -0.41750
     12 H1         -0.4597    0.5112   -2.2963 HC        1 <0>        0.03522
     13 H2         -2.1895    0.4953   -2.3423 HC        1 <0>        0.03522
     14 H3         -1.9895   -1.6115   -0.7163 HC        1 <0>        0.04823
     15 H4         -1.9042   -1.7317   -2.4680 HC        1 <0>        0.04823
     16 H5         -1.2233    2.0337   -0.6275 HC        1 <0>        0.03664
     17 H6         -2.5189    0.9715   -0.1504 HC        1 <0>        0.03664
     18 H7         -0.1820   -3.0968   -1.5005 H1        1 <0>        0.04283
     19 H8          0.5786   -1.8076   -2.4191 H1        1 <0>        0.04283
     20 H9          1.3244    0.0169   -1.4021 H1        1 <0>        0.03956
     21 H10         2.4621   -0.6620   -0.2829 H1        1 <0>        0.03956
     22 H11        -0.9849   -0.5080    1.0630 HC        1 <0>        0.06388
     23 H12        -0.8807    2.3972    1.8646 HC        1 <0>        0.03292
     24 H13        -0.7126    0.9928    2.9354 HC        1 <0>        0.03292
     25 H14        -2.2429    1.2821    2.0855 HC        1 <0>        0.03292
     26 H15         1.1463    2.5969    1.1841 HC        1 <0>        0.03597
     27 H16         1.1192    2.2455   -0.5546 HC        1 <0>        0.03597
     28 H17         2.5596    1.8584    0.4063 HC        1 <0>        0.03597
     29 H18         1.2081    0.6570    2.8334 HC        1 <0>        0.03597
     30 H19         2.6088    0.0380    1.9377 HC        1 <0>        0.03597
     31 H20         1.1991   -1.0042    2.2104 HC        1 <0>        0.03597
@<TRIPOS>BOND
     1    1    2 1
     2    1    3 1
     3    2    4 1
     4    3    6 1
     5    4   11 1
     6    5    7 1
     7    5   11 1
     8    6    7 1
     9    6    8 1
    10    7    9 1
    11    7   10 1
    12    1   12 1
    13    1   13 1
    14    2   14 1
    15    2   15 1
    16    3   16 1
    17    3   17 1
    18    4   18 1
    19    4   19 1
    20    5   20 1
    21    5   21 1
    22    6   22 1
    23    8   23 1
    24    8   24 1
    25    8   25 1
    26    9   26 1
    27    9   27 1
    28    9   28 1
    29   10   29 1
    30   10   30 1
    31   10   31 1
@<TRIPOS>SUBSTRUCTURE
     1 <0>         1 GROUP 0 A     ****
