@<TRIPOS>MOLECULE
AlkEthOH_r328
   31    31     1     0     0
SMALL
USER_CHARGES

@<TRIPOS>ATOM
      1 C1          1.8043    0.9529    0.5415 CT        1 <0>       -0.07084
      2 C2          1.8005   -0.3648    1.3093 CT        1 <0>       -0.06913
      3 C3          0.4267    1.6096    0.4976 CT        1 <0>       -0.06750
      4 C4          1.1575   -1.5387    0.5765 CT        1 <0>       -0.10331
      5 C5         -0.4503   -0.3380   -1.0078 CT        1 <0>       -0.05138
      6 C6         -0.4845    1.1784   -0.6730 CT        1 <0>       -0.03485
      7 C7         -0.3107   -1.3608    0.1412 CT        1 <0>        0.15839
      8 C8         -0.0669    1.9476   -1.9499 CT        1 <0>       -0.08955
      9 C9         -1.9301    1.6160   -0.3430 CT        1 <0>       -0.08955
     10 C10        -0.8366   -2.7224   -0.3475 CT        1 <0>       -0.12743
     11 O1         -1.1101   -0.9799    1.2552 OH        1 <0>       -0.58882
     12 H1          2.4797    1.6352    1.0736 HC        1 <0>        0.03786
     13 H2          2.2270    0.8212   -0.4600 HC        1 <0>        0.03786
     14 H3          2.8423   -0.6371    1.5235 HC        1 <0>        0.03845
     15 H4          1.3207   -0.2283    2.2863 HC        1 <0>        0.03845
     16 H5         -0.0805    1.4449    1.4569 HC        1 <0>        0.04525
     17 H6          0.5726    2.6975    0.4418 HC        1 <0>        0.04525
     18 H7          1.7734   -1.7972   -0.2946 HC        1 <0>        0.03970
     19 H8          1.2205   -2.3967    1.2600 HC        1 <0>        0.03970
     20 H9         -1.3733   -0.5624   -1.5621 HC        1 <0>        0.04271
     21 H10         0.3548   -0.5371   -1.7295 HC        1 <0>        0.04271
     22 H11        -0.7081    1.6415   -2.7655 HC        1 <0>        0.03452
     23 H12         0.9640    1.7110   -2.1767 HC        1 <0>        0.03452
     24 H13        -0.1752    3.0083   -1.7677 HC        1 <0>        0.03452
     25 H14        -2.5805    1.3197   -1.1563 HC        1 <0>        0.03452
     26 H15        -1.9522    2.6919   -0.2237 HC        1 <0>        0.03452
     27 H16        -2.2414    1.1344    0.5753 HC        1 <0>        0.03452
     28 H17        -1.8699   -2.6144   -0.6579 HC        1 <0>        0.04135
     29 H18        -0.7699   -3.4410    0.4618 HC        1 <0>        0.04135
     30 H19        -0.2347   -3.0565   -1.1855 HC        1 <0>        0.04135
     31 H20        -1.0335   -1.6920    1.9101 HO        1 <0>        0.39486
@<TRIPOS>BOND
     1    1    2 1
     2    1    3 1
     3    2    4 1
     4    3    6 1
     5    4    7 1
     6    5    6 1
     7    5    7 1
     8    6    8 1
     9    6    9 1
    10    7   10 1
    11    7   11 1
    12    1   12 1
    13    1   13 1
    14    2   14 1
    15    2   15 1
    16    3   16 1
    17    3   17 1
    18    4   18 1
    19    4   19 1
    20    5   20 1
    21    5   21 1
    22    8   22 1
    23    8   23 1
    24    8   24 1
    25    9   25 1
    26    9   26 1
    27    9   27 1
    28   10   28 1
    29   10   29 1
    30   10   30 1
    31   11   31 1
@<TRIPOS>SUBSTRUCTURE
     1 <0>         1 GROUP 0 A     ****
