@<TRIPOS>MOLECULE
AlkEthOH_r132
   11    11     1     0     0
SMALL
USER_CHARGES

@<TRIPOS>ATOM
      1 C1          0.5683   -0.1505    1.0357 CT        1 <0>       -0.12501
      2 C2          0.2842   -1.4082    0.2232 CT        1 <0>        0.11861
      3 C3         -0.4209    0.5268    0.0867 CT        1 <0>        0.31059
      4 O1         -0.4894   -0.6609   -0.7431 OS        1 <0>       -0.45846
      5 O2         -1.6819    0.9156    0.6548 OH        1 <0>       -0.59949
      6 H1          0.2560   -0.1915    2.0819 HC        1 <0>        0.07336
      7 H2          1.5975    0.2125    0.9678 HC        1 <0>        0.07336
      8 H3          1.1596   -1.8785   -0.2328 H1        1 <0>        0.05891
      9 H4         -0.3283   -2.1629    0.7245 H1        1 <0>        0.05891
     10 H5          0.0139    1.3591   -0.4793 H2        1 <0>        0.06724
     11 H6         -2.1824    1.3223   -0.0651 HO        1 <0>        0.42198
@<TRIPOS>BOND
     1    1    2 1
     2    1    3 1
     3    2    4 1
     4    3    4 1
     5    3    5 1
     6    1    6 1
     7    1    7 1
     8    2    8 1
     9    2    9 1
    10    3   10 1
    11    5   11 1
@<TRIPOS>SUBSTRUCTURE
     1 <0>         1 GROUP 0 A     ****
