@<TRIPOS>MOLECULE
AlkEthOH_r877
   31    31     1     0     0
SMALL
USER_CHARGES

@<TRIPOS>ATOM
      1 C1         -1.6447   -0.2655    1.8088 CT        1 <0>       -0.06978
      2 C2         -0.2697   -0.8718    2.0648 CT        1 <0>       -0.07184
      3 C3         -1.8071    0.6258    0.5778 CT        1 <0>       -0.07533
      4 C4          0.2213   -1.8811    1.0306 CT        1 <0>       -0.07065
      5 C5         -0.6609    1.6115    0.3289 CT        1 <0>       -0.09702
      6 C6          1.2111   -0.0389   -0.4779 CT        1 <0>       -0.05416
      7 C7          0.4440   -1.3772   -0.4067 CT        1 <0>       -0.06087
      8 C8          0.3572    1.2198   -0.7644 CT        1 <0>        0.15183
      9 C9          1.2051   -2.4626   -1.1860 CT        1 <0>       -0.09065
     10 C10         1.3050    2.4126   -0.9871 CT        1 <0>       -0.12717
     11 O1         -0.3614    1.0272   -1.9887 OH        1 <0>       -0.59619
     12 H1         -2.3947   -1.0649    1.7648 HC        1 <0>        0.03484
     13 H2         -1.9029    0.3356    2.6911 HC        1 <0>        0.03484
     14 H3          0.4756   -0.0851    2.2185 HC        1 <0>        0.03567
     15 H4         -0.3227   -1.3979    3.0278 HC        1 <0>        0.03567
     16 H5         -2.0241    0.0244   -0.3089 HC        1 <0>        0.04471
     17 H6         -2.7235    1.2107    0.7391 HC        1 <0>        0.04471
     18 H7          1.1668   -2.2923    1.4102 HC        1 <0>        0.03494
     19 H8         -0.4795   -2.7260    1.0014 HC        1 <0>        0.03494
     20 H9         -1.1409    2.5442   -0.0024 HC        1 <0>        0.04166
     21 H10        -0.1486    1.8616    1.2652 HC        1 <0>        0.04166
     22 H11         1.8146    0.1113    0.4254 HC        1 <0>        0.04644
     23 H12         1.9383   -0.1174   -1.2989 HC        1 <0>        0.04644
     24 H13        -0.5243   -1.2880   -0.9060 HC        1 <0>        0.06828
     25 H14         2.1844   -2.6041   -0.7402 HC        1 <0>        0.03248
     26 H15         1.3164   -2.1506   -2.2195 HC        1 <0>        0.03248
     27 H16         0.6470   -3.3925   -1.1436 HC        1 <0>        0.03248
     28 H17         2.0284    2.1552   -1.7532 HC        1 <0>        0.04108
     29 H18         1.8190    2.6379   -0.0590 HC        1 <0>        0.04108
     30 H19         0.7264    3.2736   -1.3040 HC        1 <0>        0.04108
     31 H20        -0.7910    1.8720   -2.1840 HO        1 <0>        0.39635
@<TRIPOS>BOND
     1    1    2 1
     2    1    3 1
     3    2    4 1
     4    3    5 1
     5    4    7 1
     6    5    8 1
     7    6    7 1
     8    6    8 1
     9    7    9 1
    10    8   10 1
    11    8   11 1
    12    1   12 1
    13    1   13 1
    14    2   14 1
    15    2   15 1
    16    3   16 1
    17    3   17 1
    18    4   18 1
    19    4   19 1
    20    5   20 1
    21    5   21 1
    22    6   22 1
    23    6   23 1
    24    7   24 1
    25    9   25 1
    26    9   26 1
    27    9   27 1
    28   10   28 1
    29   10   29 1
    30   10   30 1
    31   11   31 1
@<TRIPOS>SUBSTRUCTURE
     1 <0>         1 GROUP 0 A     ****
