@<TRIPOS>MOLECULE
AlkEthOH_r636
   21    21     1     0     0
SMALL
USER_CHARGES

@<TRIPOS>ATOM
      1 C1         -1.9901    0.3214   -0.5360 CT        1 <0>       -0.14718
      2 C2         -1.3972   -0.6455   -1.5576 CT        1 <0>        0.12357
      3 C3         -1.0051    1.3730   -0.0488 CT        1 <0>        0.13901
      4 C4          0.4002   -1.2541   -0.0964 CT        1 <0>        0.12310
      5 C5          0.8546   -0.0060    0.6727 CT        1 <0>        0.30950
      6 C6          1.4787   -0.4369    2.0017 CT        1 <0>       -0.11590
      7 O1         -0.0064   -0.8947   -1.4134 OS        1 <0>       -0.39469
      8 O2         -0.2184    0.8686    1.0259 OS        1 <0>       -0.45548
      9 O3          1.8837    0.6743   -0.0482 OH        1 <0>       -0.60118
     10 H1         -2.8663    0.8019   -0.9867 HC        1 <0>        0.05602
     11 H2         -2.3540   -0.2546    0.3242 HC        1 <0>        0.05602
     12 H3         -1.9384   -1.5985   -1.5386 H1        1 <0>        0.04656
     13 H4         -1.5328   -0.2298   -2.5623 H1        1 <0>        0.04656
     14 H5         -0.3768    1.7733   -0.8521 H1        1 <0>        0.06056
     15 H6         -1.5736    2.2137    0.3632 H1        1 <0>        0.06056
     16 H7          1.2502   -1.9339   -0.2240 H1        1 <0>        0.06169
     17 H8         -0.3956   -1.8008    0.4234 H1        1 <0>        0.06169
     18 H9          1.8034    0.4419    2.5528 HC        1 <0>        0.05364
     19 H10         2.3343   -1.0793    1.8102 HC        1 <0>        0.05364
     20 H11         0.7434   -0.9804    2.5894 HC        1 <0>        0.05364
     21 H12         2.1246    1.4456    0.4854 HO        1 <0>        0.40867
@<TRIPOS>BOND
     1    1    2 1
     2    1    3 1
     3    2    7 1
     4    3    8 1
     5    4    5 1
     6    4    7 1
     7    5    6 1
     8    5    8 1
     9    5    9 1
    10    1   10 1
    11    1   11 1
    12    2   12 1
    13    2   13 1
    14    3   14 1
    15    3   15 1
    16    4   16 1
    17    4   17 1
    18    6   18 1
    19    6   19 1
    20    6   20 1
    21    9   21 1
@<TRIPOS>SUBSTRUCTURE
     1 <0>         1 GROUP 0 A     ****
