@<TRIPOS>MOLECULE
AlkEthOH_r766
   24    24     1     0     0
SMALL
USER_CHARGES

@<TRIPOS>ATOM
      1 C1         -1.2898   -0.8891   -1.4892 CT        1 <0>       -0.11122
      2 C2         -0.4151   -2.0826   -1.0991 CT        1 <0>       -0.09021
      3 C3         -2.0257   -0.2204   -0.3283 CT        1 <0>        0.13295
      4 C4          0.6945   -1.7839   -0.0940 CT        1 <0>        0.14321
      5 C5         -0.1863    1.1347    0.4248 CT        1 <0>        0.12041
      6 C6          1.1994    0.4730    0.5384 CT        1 <0>        0.32933
      7 C7         -0.3380    2.2908    1.4119 CT        1 <0>       -0.10022
      8 O1         -1.1926    0.1753    0.7559 OS        1 <0>       -0.42717
      9 O2          1.3604   -0.5690   -0.4280 OS        1 <0>       -0.46315
     10 O3          2.1931    1.4713    0.3075 OH        1 <0>       -0.60003
     11 H1         -0.6689   -0.1531   -2.0126 HC        1 <0>        0.05399
     12 H2         -2.0339   -1.2256   -2.2218 HC        1 <0>        0.05399
     13 H3         -1.0383   -2.8996   -0.7176 HC        1 <0>        0.04469
     14 H4          0.0512   -2.4526   -2.0213 HC        1 <0>        0.04469
     15 H5         -2.5837    0.6526   -0.6866 H1        1 <0>        0.04632
     16 H6         -2.7619   -0.9217    0.0795 H1        1 <0>        0.04632
     17 H7          0.3088   -1.7817    0.9319 H1        1 <0>        0.04812
     18 H8          1.4379   -2.5876   -0.1394 H1        1 <0>        0.04812
     19 H9         -0.3337    1.5372   -0.5849 H1        1 <0>        0.06801
     20 H10         1.3577    0.0683    1.5462 H2        1 <0>        0.04136
     21 H11        -0.1976    1.9282    2.4287 HC        1 <0>        0.04849
     22 H12        -1.3324    2.7245    1.3217 HC        1 <0>        0.04849
     23 H13         0.4063    3.0565    1.2000 HC        1 <0>        0.04849
     24 H14         3.0510    1.0271    0.3851 HO        1 <0>        0.42502
@<TRIPOS>BOND
     1    1    2 1
     2    1    3 1
     3    2    4 1
     4    3    8 1
     5    4    9 1
     6    5    6 1
     7    5    7 1
     8    5    8 1
     9    6    9 1
    10    6   10 1
    11    1   11 1
    12    1   12 1
    13    2   13 1
    14    2   14 1
    15    3   15 1
    16    3   16 1
    17    4   17 1
    18    4   18 1
    19    5   19 1
    20    6   20 1
    21    7   21 1
    22    7   22 1
    23    7   23 1
    24   10   24 1
@<TRIPOS>SUBSTRUCTURE
     1 <0>         1 GROUP 0 A     ****
