@<TRIPOS>MOLECULE
AlkEthOH_r646
   24    24     1     0     0
SMALL
USER_CHARGES

@<TRIPOS>ATOM
      1 C1          1.1742   -0.7672    1.7500 CT        1 <0>       -0.14909
      2 C2          2.1203   -0.1730    0.7062 CT        1 <0>        0.13506
      3 C3          0.2661   -1.8692    1.2038 CT        1 <0>        0.13506
      4 C4          0.5200    1.2980   -0.3104 CT        1 <0>        0.12375
      5 C5         -1.3532   -0.4161    0.1905 CT        1 <0>        0.12375
      6 C6         -0.9043    0.8070   -0.6286 CT        1 <0>        0.11097
      7 C7         -1.9056    1.9505   -0.4364 CT        1 <0>       -0.12832
      8 O1          1.4716    0.2500   -0.4897 OS        1 <0>       -0.38968
      9 O2         -0.4439   -1.5033    0.0242 OS        1 <0>       -0.38968
     10 O3         -0.9451    0.4232   -2.0096 OH        1 <0>       -0.57048
     11 H1          1.7617   -1.1637    2.5863 HC        1 <0>        0.04866
     12 H2          0.5538    0.0332    2.1668 HC        1 <0>        0.04866
     13 H3          2.6810    0.6678    1.1309 H1        1 <0>        0.04682
     14 H4          2.8549   -0.9316    0.4152 H1        1 <0>        0.04682
     15 H5          0.8762   -2.7419    0.9470 H1        1 <0>        0.04682
     16 H6         -0.4476   -2.1928    1.9703 H1        1 <0>        0.04682
     17 H7          0.8002    2.0818   -1.0244 H1        1 <0>        0.04645
     18 H8          0.5811    1.7391    0.6913 H1        1 <0>        0.04645
     19 H9         -1.4972   -0.1615    1.2471 H1        1 <0>        0.04645
     20 H10        -2.3190   -0.7729   -0.1864 H1        1 <0>        0.04645
     21 H11        -2.9090    1.5982   -0.6623 HC        1 <0>        0.04332
     22 H12        -1.6535    2.7715   -1.1030 HC        1 <0>        0.04332
     23 H13        -1.8689    2.2978    0.5932 HC        1 <0>        0.04332
     24 H14        -0.7180    1.2164   -2.5145 HO        1 <0>        0.39830
@<TRIPOS>BOND
     1    1    2 1
     2    1    3 1
     3    2    8 1
     4    3    9 1
     5    4    6 1
     6    4    8 1
     7    5    6 1
     8    5    9 1
     9    6    7 1
    10    6   10 1
    11    1   11 1
    12    1   12 1
    13    2   13 1
    14    2   14 1
    15    3   15 1
    16    3   16 1
    17    4   17 1
    18    4   18 1
    19    5   19 1
    20    5   20 1
    21    7   21 1
    22    7   22 1
    23    7   23 1
    24   10   24 1
@<TRIPOS>SUBSTRUCTURE
     1 <0>         1 GROUP 0 A     ****
