@<TRIPOS>MOLECULE
AlkEthOH_r193
   23    23     1     0     0
SMALL
USER_CHARGES

@<TRIPOS>ATOM
      1 C1          0.6142    0.8165   -1.3004 CT        1 <0>       -0.14155
      2 C2          1.6477   -0.2519   -0.9952 CT        1 <0>        0.13178
      3 C3         -0.5851    0.3377   -0.5015 CT        1 <0>        0.12703
      4 C4          0.0857   -0.2422    0.7624 CT        1 <0>        0.16492
      5 C5         -1.6304    1.4205   -0.2685 CT        1 <0>       -0.11426
      6 C6         -0.7037   -1.3764    1.4205 CT        1 <0>       -0.09491
      7 C7          0.4390    0.8092    1.8250 CT        1 <0>       -0.09491
      8 O1          1.3415   -0.7934    0.2981 OS        1 <0>       -0.42090
      9 O2         -1.2089   -0.7200   -1.2402 OH        1 <0>       -0.58498
     10 H1          0.9704    1.7885   -0.9404 HC        1 <0>        0.05761
     11 H2          0.4318    0.8951   -2.3768 HC        1 <0>        0.05761
     12 H3          1.5976   -1.0723   -1.7189 H1        1 <0>        0.04917
     13 H4          2.6670    0.1448   -0.9938 H1        1 <0>        0.04917
     14 H5         -2.4631    1.0173    0.3080 HC        1 <0>        0.04681
     15 H6         -2.0065    1.7874   -1.2236 HC        1 <0>        0.04681
     16 H7         -1.1896    2.2524    0.2812 HC        1 <0>        0.04681
     17 H8         -0.1707   -1.7315    2.2998 HC        1 <0>        0.04605
     18 H9         -0.8213   -2.1973    0.7165 HC        1 <0>        0.04605
     19 H10        -1.6857   -1.0148    1.7177 HC        1 <0>        0.04605
     20 H11         0.9039    0.3197    2.6753 HC        1 <0>        0.04605
     21 H12        -0.4667    1.3144    2.1467 HC        1 <0>        0.04605
     22 H13         1.1281    1.5329    1.4003 HC        1 <0>        0.04605
     23 H14        -1.4710   -0.3366   -2.0891 HO        1 <0>        0.39749
@<TRIPOS>BOND
     1    1    2 1
     2    1    3 1
     3    2    8 1
     4    3    4 1
     5    3    5 1
     6    3    9 1
     7    4    6 1
     8    4    7 1
     9    4    8 1
    10    1   10 1
    11    1   11 1
    12    2   12 1
    13    2   13 1
    14    5   14 1
    15    5   15 1
    16    5   16 1
    17    6   17 1
    18    6   18 1
    19    6   19 1
    20    7   20 1
    21    7   21 1
    22    7   22 1
    23    9   23 1
@<TRIPOS>SUBSTRUCTURE
     1 <0>         1 GROUP 0 A     ****
