@<TRIPOS>MOLECULE
AlkEthOH_r991
   25    25     1     0     0
SMALL
USER_CHARGES

@<TRIPOS>ATOM
      1 C1          0.6485    0.2798    0.8402 CT        1 <0>       -0.10951
      2 C2         -0.8858   -0.7251    2.5424 CT        1 <0>       -0.09671
      3 C3          0.2266    1.6494    1.3516 CT        1 <0>        0.13142
      4 C4          0.5253   -0.7739    1.9432 CT        1 <0>       -0.06458
      5 C5         -1.2972    0.6980    2.9675 CT        1 <0>        0.14921
      6 C6          0.8441   -2.1676    1.4061 CT        1 <0>       -0.08899
      7 C7         -2.8045    0.7193    3.2595 CT        1 <0>       -0.10117
      8 C8         -0.5573    1.1640    4.2303 CT        1 <0>       -0.10117
      9 O1         -1.0938    1.6219    1.8877 OS        1 <0>       -0.41496
     10 H1          0.0005   -0.0002   -0.0002 HC        1 <0>        0.04976
     11 H2          1.6760    0.3223    0.4617 HC        1 <0>        0.04976
     12 H3         -1.5899   -1.0846    1.7789 HC        1 <0>        0.04950
     13 H4         -0.9613   -1.4160    3.3915 HC        1 <0>        0.04950
     14 H5          0.9289    2.0324    2.0991 H1        1 <0>        0.04468
     15 H6          0.2271    2.3644    0.5222 H1        1 <0>        0.04468
     16 H7          1.2557   -0.5463    2.7295 HC        1 <0>        0.04672
     17 H8          0.1379   -2.4308    0.6204 HC        1 <0>        0.03480
     18 H9          0.7719   -2.8983    2.2100 HC        1 <0>        0.03480
     19 H10         1.8536   -2.1841    0.9986 HC        1 <0>        0.03480
     20 H11        -3.0999    1.7203    3.5597 HC        1 <0>        0.04291
     21 H12        -3.0269    0.0198    4.0599 HC        1 <0>        0.04291
     22 H13        -3.3495    0.4327    2.3648 HC        1 <0>        0.04291
     23 H14        -0.8807    2.1681    4.4877 HC        1 <0>        0.04291
     24 H15         0.5121    1.1637    4.0421 HC        1 <0>        0.04291
     25 H16        -0.7825    0.4883    5.0499 HC        1 <0>        0.04291
@<TRIPOS>BOND
     1    1    3 1
     2    1    4 1
     3    2    4 1
     4    2    5 1
     5    3    9 1
     6    4    6 1
     7    5    7 1
     8    5    8 1
     9    5    9 1
    10    1   10 1
    11    1   11 1
    12    2   12 1
    13    2   13 1
    14    3   14 1
    15    3   15 1
    16    4   16 1
    17    6   17 1
    18    6   18 1
    19    6   19 1
    20    7   20 1
    21    7   21 1
    22    7   22 1
    23    8   23 1
    24    8   24 1
    25    8   25 1
@<TRIPOS>SUBSTRUCTURE
     1 <0>         1 GROUP 0 A     ****
