@<TRIPOS>MOLECULE
AlkEthOH_r488
   31    31     1     0     0
SMALL
USER_CHARGES

@<TRIPOS>ATOM
      1 C1          0.6524    2.0484   -0.5738 CT        1 <0>       -0.11092
      2 C2         -0.3981    1.0996   -1.1530 CT        1 <0>       -0.06425
      3 C3          2.0404    1.4447   -0.4053 CT        1 <0>        0.13144
      4 C4          1.2443   -0.3636    0.9422 CT        1 <0>        0.13431
      5 C5         -1.0815    0.1148   -0.1481 CT        1 <0>       -0.03570
      6 C6         -0.0835   -0.9866    0.4318 CT        1 <0>       -0.06256
      7 C7         -2.2549   -0.5432   -0.9270 CT        1 <0>       -0.08939
      8 C8         -1.7417    0.9353    0.9920 CT        1 <0>       -0.08939
      9 C9         -0.7059   -1.7516    1.6277 CT        1 <0>       -0.08555
     10 C10         0.2693   -2.0508   -0.6410 CT        1 <0>       -0.08555
     11 O1          2.0593    0.0530   -0.1454 OS        1 <0>       -0.41504
     12 H1          0.7475    2.9220   -1.2316 HC        1 <0>        0.04366
     13 H2          0.3177    2.4581    0.3841 HC        1 <0>        0.04366
     14 H3         -1.1838    1.7341   -1.5879 HC        1 <0>        0.04526
     15 H4          0.0296    0.5503   -2.0004 HC        1 <0>        0.04526
     16 H5          2.6079    1.5931   -1.3308 H1        1 <0>        0.04100
     17 H6          2.5918    1.9694    0.3837 H1        1 <0>        0.04100
     18 H7          1.0855    0.4443    1.6657 H1        1 <0>        0.04413
     19 H8          1.8237   -1.1311    1.4702 H1        1 <0>        0.04413
     20 H9         -2.7578   -1.2349   -0.2676 HC        1 <0>        0.03417
     21 H10        -1.8487   -1.0638   -1.7814 HC        1 <0>        0.03417
     22 H11        -2.9325    0.2349   -1.2459 HC        1 <0>        0.03417
     23 H12        -2.2117    0.2495    1.6822 HC        1 <0>        0.03417
     24 H13        -2.4788    1.5959    0.5584 HC        1 <0>        0.03417
     25 H14        -0.9739    1.5066    1.4940 HC        1 <0>        0.03417
     26 H15        -1.6358   -2.1997    1.3059 HC        1 <0>        0.03658
     27 H16        -0.8865   -1.0507    2.4309 HC        1 <0>        0.03658
     28 H17        -0.0125   -2.5171    1.9476 HC        1 <0>        0.03658
     29 H18        -0.6482   -2.4918   -1.0039 HC        1 <0>        0.03658
     30 H19         0.8939   -2.8058   -0.1850 HC        1 <0>        0.03658
     31 H20         0.7973   -1.5641   -1.4487 HC        1 <0>        0.03658
@<TRIPOS>BOND
     1    1    2 1
     2    1    3 1
     3    2    5 1
     4    3   11 1
     5    4    6 1
     6    4   11 1
     7    5    6 1
     8    5    7 1
     9    5    8 1
    10    6    9 1
    11    6   10 1
    12    1   12 1
    13    1   13 1
    14    2   14 1
    15    2   15 1
    16    3   16 1
    17    3   17 1
    18    4   18 1
    19    4   19 1
    20    7   20 1
    21    7   21 1
    22    7   22 1
    23    8   23 1
    24    8   24 1
    25    8   25 1
    26    9   26 1
    27    9   27 1
    28    9   28 1
    29   10   29 1
    30   10   30 1
    31   10   31 1
@<TRIPOS>SUBSTRUCTURE
     1 <0>         1 GROUP 0 A     ****
