@<TRIPOS>MOLECULE
AlkEthOH_r217
   19    19     1     0     0
SMALL
USER_CHARGES

@<TRIPOS>ATOM
      1 C1         -0.2669   -1.5776   -1.1366 CT        1 <0>        0.09736
      2 C2         -0.8412   -0.2631   -1.6287 CT        1 <0>        0.10203
      3 C3          0.4448   -0.5230    0.8617 CT        1 <0>        0.28441
      4 C4         -0.1069    0.8222    0.3542 CT        1 <0>        0.33336
      5 C5          0.7462    2.0028    0.8211 CT        1 <0>       -0.10776
      6 O1         -0.2880   -1.6151    0.2901 OS        1 <0>       -0.44071
      7 O2         -0.1052    0.8308   -1.0806 OS        1 <0>       -0.38931
      8 O3          1.8460   -0.6586    0.6385 OH        1 <0>       -0.61255
      9 O4         -1.4288    0.9815    0.8803 OH        1 <0>       -0.61008
     10 H1         -0.8616   -2.4175   -1.5078 H1        1 <0>        0.05986
     11 H2          0.7639   -1.7133   -1.4828 H1        1 <0>        0.05986
     12 H3         -0.7760   -0.2036   -2.7193 H1        1 <0>        0.06920
     13 H4         -1.8956   -0.1606   -1.3485 H1        1 <0>        0.06920
     14 H5          0.2782   -0.5893    1.9555 H2        1 <0>        0.06855
     15 H6          0.3249    2.9321    0.4431 HC        1 <0>        0.06082
     16 H7          1.7620    1.8919    0.4474 HC        1 <0>        0.06082
     17 H8          0.7655    2.0342    1.9085 HC        1 <0>        0.06082
     18 H9          2.0985   -1.5274    0.9874 HO        1 <0>        0.42168
     19 H10        -1.3395    0.9703    1.8442 HO        1 <0>        0.41244
@<TRIPOS>BOND
     1    1    2 1
     2    1    6 1
     3    2    7 1
     4    3    4 1
     5    3    6 1
     6    3    8 1
     7    4    5 1
     8    4    7 1
     9    4    9 1
    10    1   10 1
    11    1   11 1
    12    2   12 1
    13    2   13 1
    14    3   14 1
    15    5   15 1
    16    5   16 1
    17    5   17 1
    18    8   18 1
    19    9   19 1
@<TRIPOS>SUBSTRUCTURE
     1 <0>         1 GROUP 0 A     ****
