@<TRIPOS>MOLECULE
AlkEthOH_r966
   25    25     1     0     0
SMALL
USER_CHARGES

@<TRIPOS>ATOM
      1 C1         -1.3586    1.4245   -0.8682 CT        1 <0>       -0.11163
      2 C2         -0.9457    0.0800   -1.4499 CT        1 <0>       -0.07433
      3 C3         -1.2441    1.4139    0.6459 CT        1 <0>        0.12998
      4 C4          0.4406   -0.3341   -0.9314 CT        1 <0>       -0.08515
      5 C5          0.5165   -0.2497    0.6205 CT        1 <0>        0.15591
      6 C6          0.8235   -1.6982   -1.5107 CT        1 <0>       -0.08851
      7 C7         -0.2801   -1.3490    1.3430 CT        1 <0>       -0.10045
      8 C8          1.9785   -0.3360    1.0918 CT        1 <0>       -0.10045
      9 O1          0.0692    1.0485    1.0590 OS        1 <0>       -0.41949
     10 H1         -0.6968    2.1997   -1.2738 HC        1 <0>        0.04921
     11 H2         -2.3811    1.6730   -1.1714 HC        1 <0>        0.04921
     12 H3         -1.6944   -0.6784   -1.1902 HC        1 <0>        0.04213
     13 H4         -0.9338    0.1471   -2.5444 HC        1 <0>        0.04213
     14 H5         -1.4418    2.4183    1.0346 H1        1 <0>        0.04465
     15 H6         -1.9836    0.7471    1.1010 H1        1 <0>        0.04465
     16 H7          1.1500    0.4031   -1.3354 HC        1 <0>        0.05722
     17 H8          0.1435   -2.4592   -1.1346 HC        1 <0>        0.03564
     18 H9          1.8404   -1.9480   -1.2167 HC        1 <0>        0.03564
     19 H10         0.7610   -1.6651   -2.5961 HC        1 <0>        0.03564
     20 H11        -0.1764   -1.2206    2.4157 HC        1 <0>        0.04300
     21 H12         0.1059   -2.3209    1.0529 HC        1 <0>        0.04300
     22 H13        -1.3267   -1.2742    1.0660 HC        1 <0>        0.04300
     23 H14         2.0096   -0.2754    2.1747 HC        1 <0>        0.04300
     24 H15         2.5417    0.4867    0.6636 HC        1 <0>        0.04300
     25 H16         2.4045   -1.2793    0.7661 HC        1 <0>        0.04300
@<TRIPOS>BOND
     1    1    2 1
     2    1    3 1
     3    2    4 1
     4    3    9 1
     5    4    5 1
     6    4    6 1
     7    5    7 1
     8    5    8 1
     9    5    9 1
    10    1   10 1
    11    1   11 1
    12    2   12 1
    13    2   13 1
    14    3   14 1
    15    3   15 1
    16    4   16 1
    17    6   17 1
    18    6   18 1
    19    6   19 1
    20    7   20 1
    21    7   21 1
    22    7   22 1
    23    8   23 1
    24    8   24 1
    25    8   25 1
@<TRIPOS>SUBSTRUCTURE
     1 <0>         1 GROUP 0 A     ****
