@<TRIPOS>MOLECULE
AlkEthOH_r807
   24    24     1     0     0
SMALL
USER_CHARGES

@<TRIPOS>ATOM
      1 C1         -0.6819    0.6066   -1.0375 CT        1 <0>       -0.14252
      2 C2          1.1539    0.3386    1.8959 CT        1 <0>        0.10644
      3 C3          1.8025    0.7705    0.5861 CT        1 <0>        0.09633
      4 C4         -0.7957   -0.8168    1.1232 CT        1 <0>        0.13371
      5 C5         -1.4673   -0.3967   -0.1837 CT        1 <0>        0.13032
      6 C6          0.7268    0.1791   -1.4820 CT        1 <0>        0.15214
      7 C7          0.6717   -0.9880   -2.4637 CT        1 <0>       -0.09414
      8 O1         -0.2711    0.3200    1.8123 OS        1 <0>       -0.40767
      9 O2          1.5801   -0.2231   -0.4097 OS        1 <0>       -0.42783
     10 O3         -2.7191    0.2097    0.1590 OH        1 <0>       -0.59283
     11 H1         -1.2782    0.8479   -1.9282 HC        1 <0>        0.05628
     12 H2         -0.6247    1.5568   -0.4907 HC        1 <0>        0.05628
     13 H3          1.5185   -0.6427    2.2218 H1        1 <0>        0.05506
     14 H4          1.4159    1.0623    2.6746 H1        1 <0>        0.05506
     15 H5          1.4492    1.7571    0.2682 H1        1 <0>        0.05066
     16 H6          2.8851    0.8408    0.7334 H1        1 <0>        0.05066
     17 H7         -1.5371   -1.2692    1.7911 H1        1 <0>        0.06239
     18 H8         -0.0269   -1.5762    0.9420 H1        1 <0>        0.06239
     19 H9         -1.7049   -1.2919   -0.7684 H1        1 <0>        0.03113
     20 H10         1.2027    1.0244   -1.9954 H1        1 <0>        0.03400
     21 H11         0.2040   -1.8495   -1.9889 HC        1 <0>        0.04588
     22 H12         1.6799   -1.2575   -2.7753 HC        1 <0>        0.04588
     23 H13         0.0912   -0.7066   -3.3413 HC        1 <0>        0.04588
     24 H14        -3.1651    0.3979   -0.6790 HO        1 <0>        0.39450
@<TRIPOS>BOND
     1    1    5 1
     2    1    6 1
     3    2    3 1
     4    2    8 1
     5    3    9 1
     6    4    5 1
     7    4    8 1
     8    5   10 1
     9    6    7 1
    10    6    9 1
    11    1   11 1
    12    1   12 1
    13    2   13 1
    14    2   14 1
    15    3   15 1
    16    3   16 1
    17    4   17 1
    18    4   18 1
    19    5   19 1
    20    6   20 1
    21    7   21 1
    22    7   22 1
    23    7   23 1
    24   10   24 1
@<TRIPOS>SUBSTRUCTURE
     1 <0>         1 GROUP 0 A     ****
