@<TRIPOS>MOLECULE
AlkEthOH_r15
   20    20     1     0     0
SMALL
USER_CHARGES

@<TRIPOS>ATOM
      1 C1         -0.5396    0.0448   -0.9539 CT        1 <0>       -0.07549
      2 C2         -1.1255   -1.3275   -1.2707 CT        1 <0>       -0.07832
      3 C3         -1.6268    1.1118   -0.8724 CT        1 <0>       -0.07832
      4 C4         -3.3079   -0.6465   -0.2036 CT        1 <0>       -0.15007
      5 C5         -2.2219   -1.7170   -0.2808 CT        1 <0>        0.14789
      6 C6         -2.7242    0.7272    0.1181 CT        1 <0>        0.14789
      7 O1         -2.7947   -2.9510   -0.6991 OH        1 <0>       -0.59760
      8 O2         -3.7525    1.7096    0.0614 OH        1 <0>       -0.59760
      9 H1         -0.0000   -0.0001    0.0000 HC        1 <0>        0.04504
     10 H2          0.1915    0.3210   -1.7220 HC        1 <0>        0.04504
     11 H3         -1.5302   -1.3326   -2.2914 HC        1 <0>        0.05671
     12 H4         -0.3330   -2.0855   -1.2632 HC        1 <0>        0.05671
     13 H5         -1.1883    2.0746   -0.5834 HC        1 <0>        0.05671
     14 H6         -2.0652    1.2728   -1.8661 HC        1 <0>        0.05671
     15 H7         -3.8692   -0.6077   -1.1473 HC        1 <0>        0.05394
     16 H8         -4.0581   -0.9236    0.5480 HC        1 <0>        0.05394
     17 H9         -1.7799   -1.8725    0.7106 H1        1 <0>        0.02999
     18 H10        -2.3150    0.7297    1.1354 H1        1 <0>        0.02999
     19 H11        -3.4845   -3.1705   -0.0530 HO        1 <0>        0.39842
     20 H12        -4.4318    1.4383    0.6989 HO        1 <0>        0.39842
@<TRIPOS>BOND
     1    1    2 1
     2    1    3 1
     3    2    5 1
     4    3    6 1
     5    4    5 1
     6    4    6 1
     7    5    7 1
     8    6    8 1
     9    1    9 1
    10    1   10 1
    11    2   11 1
    12    2   12 1
    13    3   13 1
    14    3   14 1
    15    4   15 1
    16    4   16 1
    17    5   17 1
    18    6   18 1
    19    7   19 1
    20    8   20 1
@<TRIPOS>SUBSTRUCTURE
     1 <0>         1 GROUP 0 A     ****
