@<TRIPOS>MOLECULE
AlkEthOH_r827
   21    21     1     0     0
SMALL
USER_CHARGES

@<TRIPOS>ATOM
      1 C1          0.0594    0.9161    0.7912 CT        1 <0>       -0.17370
      2 C2          0.6775   -1.3505   -1.1961 CT        1 <0>        0.09568
      3 C3         -0.4877   -0.4905   -1.6599 CT        1 <0>        0.09801
      4 C4          0.9450   -0.3194    0.9604 CT        1 <0>        0.14597
      5 C5         -1.3601    0.5986    0.3004 CT        1 <0>        0.33379
      6 C6          2.1010   -0.0134    1.9086 CT        1 <0>       -0.09400
      7 O1          1.5400   -0.6657   -0.2938 OS        1 <0>       -0.41815
      8 O2         -1.4788   -0.4618   -0.6411 OS        1 <0>       -0.40595
      9 O3         -1.9963    1.7865   -0.1697 OH        1 <0>       -0.61798
     10 H1         -0.0352    1.4664    1.7363 HC        1 <0>        0.06612
     11 H2          0.5370    1.6146    0.0904 HC        1 <0>        0.06612
     12 H3          0.3314   -2.2784   -0.7265 H1        1 <0>        0.05761
     13 H4          1.2892   -1.6207   -2.0628 H1        1 <0>        0.05761
     14 H5         -0.1806    0.5205   -1.9491 H1        1 <0>        0.06594
     15 H6         -0.9509   -0.9656   -2.5306 H1        1 <0>        0.06594
     16 H7          0.3821   -1.1701    1.3637 H1        1 <0>        0.04809
     17 H8         -1.9451    0.2595    1.1841 H2        1 <0>        0.06313
     18 H9          2.6773    0.8298    1.5300 HC        1 <0>        0.04626
     19 H10         2.7531   -0.8820    1.9898 HC        1 <0>        0.04626
     20 H11         1.7141    0.2348    2.8961 HC        1 <0>        0.04626
     21 H12        -2.0234    2.3984    0.5814 HO        1 <0>        0.40699
@<TRIPOS>BOND
     1    1    4 1
     2    1    5 1
     3    2    3 1
     4    2    7 1
     5    3    8 1
     6    4    6 1
     7    4    7 1
     8    5    8 1
     9    5    9 1
    10    1   10 1
    11    1   11 1
    12    2   12 1
    13    2   13 1
    14    3   14 1
    15    3   15 1
    16    4   16 1
    17    5   17 1
    18    6   18 1
    19    6   19 1
    20    6   20 1
    21    9   21 1
@<TRIPOS>SUBSTRUCTURE
     1 <0>         1 GROUP 0 A     ****
