@<TRIPOS>MOLECULE
AlkEthOH_r1149
   22    22     1     0     0
SMALL
USER_CHARGES

@<TRIPOS>ATOM
      1 C1         -1.9443   -0.2183   -0.7202 CT        1 <0>        0.09273
      2 C2         -1.7524   -0.6199    0.7364 CT        1 <0>        0.10302
      3 C3         -0.2169    1.3140   -1.3876 CT        1 <0>        0.08988
      4 C4          0.8019    1.1297   -0.2701 CT        1 <0>        0.30214
      5 C5          0.6133   -0.8587    1.0540 CT        1 <0>        0.34225
      6 C6          1.6066   -1.9531    1.4251 CT        1 <0>       -0.08976
      7 O1         -1.5539    1.1354   -0.9319 OS        1 <0>       -0.41646
      8 O2         -0.6466   -1.5049    0.8818 OS        1 <0>       -0.43882
      9 O3          1.1066   -0.2549   -0.1383 OS        1 <0>       -0.47903
     10 O4          1.9855    1.8307   -0.6492 OH        1 <0>       -0.60191
     11 H1         -1.4450   -0.8967   -1.4212 H1        1 <0>        0.06502
     12 H2         -3.0164   -0.2450   -0.9433 H1        1 <0>        0.06502
     13 H3         -1.6647    0.2383    1.4120 H1        1 <0>        0.05735
     14 H4         -2.6270   -1.1993    1.0511 H1        1 <0>        0.05735
     15 H5         -0.1585    2.3406   -1.7670 H1        1 <0>        0.06676
     16 H6         -0.0154    0.6533   -2.2395 H1        1 <0>        0.06676
     17 H7          0.4324    1.5701    0.6634 H2        1 <0>        0.08470
     18 H8          0.5695   -0.1490    1.8899 H2        1 <0>        0.04256
     19 H9          1.6786   -2.6806    0.6167 HC        1 <0>        0.05705
     20 H10         1.2787   -2.4623    2.3312 HC        1 <0>        0.05705
     21 H11         2.5912   -1.5191    1.5994 HC        1 <0>        0.05705
     22 H12         2.2857    1.4328   -1.4805 HO        1 <0>        0.41929
@<TRIPOS>BOND
     1    1    2 1
     2    1    7 1
     3    2    8 1
     4    3    4 1
     5    3    7 1
     6    4    9 1
     7    4   10 1
     8    5    6 1
     9    5    8 1
    10    5    9 1
    11    1   11 1
    12    1   12 1
    13    2   13 1
    14    2   14 1
    15    3   15 1
    16    3   16 1
    17    4   17 1
    18    5   18 1
    19    6   19 1
    20    6   20 1
    21    6   21 1
    22   10   22 1
@<TRIPOS>SUBSTRUCTURE
     1 <0>         1 GROUP 0 A     ****
