@<TRIPOS>MOLECULE
AlkEthOH_r841
   22    22     1     0     0
SMALL
USER_CHARGES

@<TRIPOS>ATOM
      1 C1          0.6949   -0.6807    0.5000 CT        1 <0>       -0.10950
      2 C2          1.8400    0.0308    1.1806 CT        1 <0>       -0.10421
      3 C3          0.0596   -1.4162    1.6658 CT        1 <0>        0.13548
      4 C4          2.2950   -0.9905    2.2240 CT        1 <0>        0.14537
      5 C5         -0.7116   -2.6541    1.2511 CT        1 <0>       -0.09606
      6 C6          3.3636   -1.9360    1.6701 CT        1 <0>       -0.09651
      7 C7          2.7943   -0.3190    3.4998 CT        1 <0>       -0.09651
      8 O1          1.1349   -1.7857    2.5448 OS        1 <0>       -0.42440
      9 H1         -0.0002    0.0000    0.0003 HC        1 <0>        0.05462
     10 H2          1.0818   -1.3814   -0.2490 HC        1 <0>        0.05462
     11 H3          2.6314    0.3322    0.4877 HC        1 <0>        0.05452
     12 H4          1.4583    0.9389    1.6642 HC        1 <0>        0.05452
     13 H5         -0.5990   -0.7414    2.2259 H1        1 <0>        0.04367
     14 H6         -0.0656   -3.3347    0.6917 HC        1 <0>        0.04347
     15 H7         -1.5588   -2.3797    0.6181 HC        1 <0>        0.04347
     16 H8         -1.0904   -3.1786    2.1315 HC        1 <0>        0.04347
     17 H9          3.6598   -2.6448    2.4401 HC        1 <0>        0.04233
     18 H10         4.2328   -1.3622    1.3567 HC        1 <0>        0.04233
     19 H11         2.9646   -2.4791    0.8163 HC        1 <0>        0.04233
     20 H12         3.1090   -1.0752    4.2179 HC        1 <0>        0.04233
     21 H13         1.9975    0.2792    3.9399 HC        1 <0>        0.04233
     22 H14         3.6402    0.3282    3.2713 HC        1 <0>        0.04233
@<TRIPOS>BOND
     1    1    2 1
     2    1    3 1
     3    2    4 1
     4    3    5 1
     5    3    8 1
     6    4    6 1
     7    4    7 1
     8    4    8 1
     9    1    9 1
    10    1   10 1
    11    2   11 1
    12    2   12 1
    13    3   13 1
    14    5   14 1
    15    5   15 1
    16    5   16 1
    17    6   17 1
    18    6   18 1
    19    6   19 1
    20    7   20 1
    21    7   21 1
    22    7   22 1
@<TRIPOS>SUBSTRUCTURE
     1 <0>         1 GROUP 0 A     ****
