@<TRIPOS>MOLECULE
AlkEthOH_r665
   24    24     1     0     0
SMALL
USER_CHARGES

@<TRIPOS>ATOM
      1 C1         -1.3918   -0.4380   -1.7399 CT        1 <0>        0.11270
      2 C2         -0.8383   -1.7197   -1.1270 CT        1 <0>        0.10314
      3 C3         -0.6493    1.1587   -0.1146 CT        1 <0>        0.10706
      4 C4          0.2726   -1.4988    0.9705 CT        1 <0>        0.32592
      5 C5          0.6771    0.8959    0.6220 CT        1 <0>        0.13702
      6 C6          1.7959    1.7323   -0.0217 CT        1 <0>       -0.10295
      7 C7          0.5583    1.2938    2.0985 CT        1 <0>       -0.10295
      8 O1         -0.5723    0.6987   -1.4656 OS        1 <0>       -0.40903
      9 O2         -0.9704   -1.6624    0.2917 OS        1 <0>       -0.46352
     10 O3          1.1184   -0.4607    0.4860 OS        1 <0>       -0.43787
     11 H1         -1.4198   -0.5499   -2.8286 H1        1 <0>        0.05285
     12 H2         -2.4155   -0.2401   -1.4010 H1        1 <0>        0.05285
     13 H3         -1.4384   -2.5681   -1.4711 H1        1 <0>        0.05731
     14 H4          0.2001   -1.8937   -1.4320 H1        1 <0>        0.05731
     15 H5         -1.5043    0.7196    0.4125 H1        1 <0>        0.05376
     16 H6         -0.8415    2.2377   -0.1537 H1        1 <0>        0.05376
     17 H7          0.0704   -1.3641    2.0370 H2        1 <0>        0.06164
     18 H8          0.8296   -2.4379    0.8783 H2        1 <0>        0.06164
     19 H9          2.7289    1.5447    0.4998 HC        1 <0>        0.04656
     20 H10         1.5428    2.7851    0.0503 HC        1 <0>        0.04656
     21 H11         1.8979    1.4518   -1.0650 HC        1 <0>        0.04656
     22 H12         1.5015    1.1022    2.6027 HC        1 <0>        0.04656
     23 H13        -0.2284    0.7103    2.5690 HC        1 <0>        0.04656
     24 H14         0.3175    2.3509    2.1709 HC        1 <0>        0.04656
@<TRIPOS>BOND
     1    1    2 1
     2    1    8 1
     3    2    9 1
     4    3    5 1
     5    3    8 1
     6    4    9 1
     7    4   10 1
     8    5    6 1
     9    5    7 1
    10    5   10 1
    11    1   11 1
    12    1   12 1
    13    2   13 1
    14    2   14 1
    15    3   15 1
    16    3   16 1
    17    4   17 1
    18    4   18 1
    19    6   19 1
    20    6   20 1
    21    6   21 1
    22    7   22 1
    23    7   23 1
    24    7   24 1
@<TRIPOS>SUBSTRUCTURE
     1 <0>         1 GROUP 0 A     ****
