@<TRIPOS>MOLECULE
AlkEthOH_r661
   23    23     1     0     0
SMALL
USER_CHARGES

@<TRIPOS>ATOM
      1 C1         -0.5260    1.5714   -1.3872 CT        1 <0>        0.09592
      2 C2          0.6465    0.7611   -1.9165 CT        1 <0>        0.09592
      3 C3         -1.1233    0.3799    0.5748 CT        1 <0>        0.13755
      4 C4          1.1064   -0.7070   -0.1113 CT        1 <0>        0.13755
      5 C5         -0.0338   -0.6542    0.9267 CT        1 <0>       -0.10496
      6 C6          0.5831   -0.3104    2.2960 CT        1 <0>       -0.08713
      7 C7         -0.7046   -2.0375    1.0294 CT        1 <0>       -0.08713
      8 O1         -0.5766    1.5844    0.0388 OS        1 <0>       -0.41398
      9 O2          0.6282   -0.5876   -1.4507 OS        1 <0>       -0.41398
     10 H1         -0.4179    2.6098   -1.7181 H1        1 <0>        0.05253
     11 H2         -1.4756    1.2039   -1.7945 H1        1 <0>        0.05253
     12 H3          0.5904    0.7281   -3.0096 H1        1 <0>        0.05253
     13 H4          1.6009    1.2353   -1.6600 H1        1 <0>        0.05253
     14 H5         -1.8687   -0.0411   -0.1125 H1        1 <0>        0.05026
     15 H6         -1.6788    0.6569    1.4790 H1        1 <0>        0.05026
     16 H7          1.8688    0.0560    0.0924 H1        1 <0>        0.05026
     17 H8          1.6270   -1.6698   -0.0431 H1        1 <0>        0.05026
     18 H9          1.3472   -1.0416    2.5355 HC        1 <0>        0.03818
     19 H10        -0.1943   -0.3311    3.0515 HC        1 <0>        0.03818
     20 H11         1.0237    0.6792    2.2492 HC        1 <0>        0.03818
     21 H12         0.0464   -2.7795    1.2766 HC        1 <0>        0.03818
     22 H13        -1.1628   -2.2820    0.0776 HC        1 <0>        0.03818
     23 H14        -1.4617   -2.0089    1.8050 HC        1 <0>        0.03818
@<TRIPOS>BOND
     1    1    2 1
     2    1    8 1
     3    2    9 1
     4    3    5 1
     5    3    8 1
     6    4    5 1
     7    4    9 1
     8    5    6 1
     9    5    7 1
    10    1   10 1
    11    1   11 1
    12    2   12 1
    13    2   13 1
    14    3   14 1
    15    3   15 1
    16    4   16 1
    17    4   17 1
    18    6   18 1
    19    6   19 1
    20    6   20 1
    21    7   21 1
    22    7   22 1
    23    7   23 1
@<TRIPOS>SUBSTRUCTURE
     1 <0>         1 GROUP 0 A     ****
