@<TRIPOS>MOLECULE
AlkEthOH_r274
   30    30     1     0     0
SMALL
USER_CHARGES

@<TRIPOS>ATOM
      1 C1          1.9070    1.8544   -0.0194 CT        1 <0>       -0.12936
      2 C2         -0.9639   -0.8492    0.7291 CT        1 <0>       -0.12618
      3 C3          0.6900    2.3820   -0.7953 CT        1 <0>        0.13372
      4 C4          1.5614    0.9293    1.1478 CT        1 <0>        0.14841
      5 C5         -0.3545    0.3411   -1.4877 CT        1 <0>        0.12992
      6 C6          0.4537   -1.2212    1.1993 CT        1 <0>        0.34623
      7 C7         -1.2082   -0.7578   -0.8093 CT        1 <0>       -0.04422
      8 C8         -2.7016   -0.4184   -1.0159 CT        1 <0>       -0.09109
      9 C9         -0.9225   -2.1058   -1.4915 CT        1 <0>       -0.09109
     10 O1         -0.4525    1.5406   -0.7263 OS        1 <0>       -0.42509
     11 O2          1.4777   -0.4034    0.6456 OS        1 <0>       -0.42387
     12 O3          0.5135   -1.2917    2.6236 OH        1 <0>       -0.62934
     13 H1          2.5612    1.3232   -0.7220 HC        1 <0>        0.05543
     14 H2          2.4757    2.7187    0.3437 HC        1 <0>        0.05543
     15 H3         -1.6576   -1.5854    1.1603 HC        1 <0>        0.05882
     16 H4         -1.2560    0.0996    1.1984 HC        1 <0>        0.05882
     17 H5          0.3891    3.3370   -0.3500 H1        1 <0>        0.04364
     18 H6          0.9485    2.5906   -1.8401 H1        1 <0>        0.04364
     19 H7          2.3787    0.9422    1.8766 H1        1 <0>        0.05149
     20 H8          0.6500    1.2550    1.6599 H1        1 <0>        0.05149
     21 H9          0.6854    0.0160   -1.5962 H1        1 <0>        0.04206
     22 H10        -0.7207    0.5502   -2.5002 H1        1 <0>        0.04206
     23 H11         0.6660   -2.2476    0.8318 H2        1 <0>        0.06060
     24 H12        -2.9020   -0.3482   -2.0776 HC        1 <0>        0.03812
     25 H13        -2.9164    0.5275   -0.5349 HC        1 <0>        0.03812
     26 H14        -3.3040   -1.2034   -0.5760 HC        1 <0>        0.03812
     27 H15        -1.1002   -2.0129   -2.5582 HC        1 <0>        0.03812
     28 H16        -1.5793   -2.8639   -1.0771 HC        1 <0>        0.03812
     29 H17         0.1119   -2.3841   -1.3170 HC        1 <0>        0.03812
     30 H18        -0.1202   -1.9744    2.8913 HO        1 <0>        0.40976
@<TRIPOS>BOND
     1    1    3 1
     2    1    4 1
     3    2    6 1
     4    2    7 1
     5    3   10 1
     6    4   11 1
     7    5    7 1
     8    5   10 1
     9    6   11 1
    10    6   12 1
    11    7    8 1
    12    7    9 1
    13    1   13 1
    14    1   14 1
    15    2   15 1
    16    2   16 1
    17    3   17 1
    18    3   18 1
    19    4   19 1
    20    4   20 1
    21    5   21 1
    22    5   22 1
    23    6   23 1
    24    8   24 1
    25    8   25 1
    26    8   26 1
    27    9   27 1
    28    9   28 1
    29    9   29 1
    30   12   30 1
@<TRIPOS>SUBSTRUCTURE
     1 <0>         1 GROUP 0 A     ****
