@<TRIPOS>MOLECULE
AlkEthOH_r957
   28    28     1     0     0
SMALL
USER_CHARGES

@<TRIPOS>ATOM
      1 C1          0.8539    2.0070    0.3046 CT        1 <0>       -0.10614
      2 C2          0.8003    1.1045    1.5353 CT        1 <0>       -0.07153
      3 C3          0.0613   -1.0651    0.4181 CT        1 <0>       -0.09575
      4 C4          1.0318    1.2595   -1.0081 CT        1 <0>        0.13488
      5 C5         -0.2657   -0.0042    1.4871 CT        1 <0>       -0.05996
      6 C6         -0.3878   -0.7133   -1.0188 CT        1 <0>        0.15287
      7 C7         -0.3424   -0.6768    2.8636 CT        1 <0>       -0.09157
      8 C8         -1.8980   -0.9634   -1.1692 CT        1 <0>       -0.10158
      9 C9          0.3454   -1.6042   -2.0339 CT        1 <0>       -0.10158
     10 O1         -0.1990    0.6562   -1.3786 OS        1 <0>       -0.42093
     11 H1         -0.0683    2.5999    0.2652 HC        1 <0>        0.04897
     12 H2          1.6867    2.7089    0.4312 HC        1 <0>        0.04897
     13 H3          1.7906    0.6570    1.6924 HC        1 <0>        0.03705
     14 H4          0.6161    1.7450    2.4076 HC        1 <0>        0.03705
     15 H5          1.1447   -1.2473    0.4330 HC        1 <0>        0.04503
     16 H6         -0.3913   -2.0279    0.6922 HC        1 <0>        0.04503
     17 H7          1.2656    1.9894   -1.7907 H1        1 <0>        0.04317
     18 H8          1.8627    0.5475   -0.9754 H1        1 <0>        0.04317
     19 H9         -1.2448    0.4466    1.2885 HC        1 <0>        0.06029
     20 H10         0.6141   -1.1368    3.0960 HC        1 <0>        0.03334
     21 H11        -1.1170   -1.4386    2.8520 HC        1 <0>        0.03334
     22 H12        -0.5786    0.0683    3.6183 HC        1 <0>        0.03334
     23 H13        -2.2035   -0.7139   -2.1801 HC        1 <0>        0.04209
     24 H14        -2.4363   -0.3418   -0.4612 HC        1 <0>        0.04209
     25 H15        -2.1093   -2.0093   -0.9715 HC        1 <0>        0.04209
     26 H16         0.0215   -1.3474   -3.0377 HC        1 <0>        0.04209
     27 H17         0.1138   -2.6453   -1.8318 HC        1 <0>        0.04209
     28 H18         1.4156   -1.4452   -1.9448 HC        1 <0>        0.04209
@<TRIPOS>BOND
     1    1    2 1
     2    1    4 1
     3    2    5 1
     4    3    5 1
     5    3    6 1
     6    4   10 1
     7    5    7 1
     8    6    8 1
     9    6    9 1
    10    6   10 1
    11    1   11 1
    12    1   12 1
    13    2   13 1
    14    2   14 1
    15    3   15 1
    16    3   16 1
    17    4   17 1
    18    4   18 1
    19    5   19 1
    20    7   20 1
    21    7   21 1
    22    7   22 1
    23    8   23 1
    24    8   24 1
    25    8   25 1
    26    9   26 1
    27    9   27 1
    28    9   28 1
@<TRIPOS>SUBSTRUCTURE
     1 <0>         1 GROUP 0 A     ****
