@<TRIPOS>MOLECULE
AlkEthOH_r902
   30    30     1     0     0
SMALL
USER_CHARGES

@<TRIPOS>ATOM
      1 C1         -0.1389   -0.6053    2.2678 CT        1 <0>       -0.07138
      2 C2          0.0507    0.8949    2.0477 CT        1 <0>       -0.07138
      3 C3         -0.2901   -1.5089    1.0462 CT        1 <0>       -0.07309
      4 C4         -1.0127    1.5805    1.1881 CT        1 <0>       -0.07309
      5 C5          0.9457   -1.6638    0.1643 CT        1 <0>       -0.06899
      6 C6         -0.5793    1.9246   -0.2433 CT        1 <0>       -0.06899
      7 C7          1.3914   -0.4729   -0.6855 CT        1 <0>       -0.06961
      8 C8         -0.8183    0.8213   -1.2773 CT        1 <0>       -0.06961
      9 C9          0.4323    0.0648   -1.7617 CT        1 <0>       -0.05832
     10 C10         0.0190   -1.0352   -2.7463 CT        1 <0>       -0.09141
     11 H1          0.6964   -0.9713    2.8784 HC        1 <0>        0.03492
     12 H2         -1.0366   -0.7397    2.8863 HC        1 <0>        0.03492
     13 H3          0.0038    1.3523    3.0464 HC        1 <0>        0.03492
     14 H4          1.0601    1.1213    1.6973 HC        1 <0>        0.03492
     15 H5         -0.5205   -2.5117    1.4335 HC        1 <0>        0.03700
     16 H6         -1.1703   -1.2377    0.4648 HC        1 <0>        0.03700
     17 H7         -1.9559    1.0224    1.1947 HC        1 <0>        0.03700
     18 H8         -1.2369    2.5392    1.6767 HC        1 <0>        0.03700
     19 H9          1.7896   -1.9553    0.8036 HC        1 <0>        0.03577
     20 H10         0.7800   -2.5210   -0.5003 HC        1 <0>        0.03577
     21 H11        -1.2002    2.7778   -0.5509 HC        1 <0>        0.03577
     22 H12         0.4521    2.2929   -0.2719 HC        1 <0>        0.03577
     23 H13         1.7399    0.3435   -0.0522 HC        1 <0>        0.03720
     24 H14         2.3013   -0.8000   -1.2105 HC        1 <0>        0.03720
     25 H15        -1.6066    0.1383   -0.9507 HC        1 <0>        0.03720
     26 H16        -1.2428    1.3092   -2.1675 HC        1 <0>        0.03720
     27 H17         1.0205    0.7921   -2.3404 HC        1 <0>        0.03722
     28 H18        -0.5689   -1.7866   -2.2258 HC        1 <0>        0.03303
     29 H19         0.9075   -1.4991   -3.1665 HC        1 <0>        0.03303
     30 H20        -0.5753   -0.6020   -3.5465 HC        1 <0>        0.03303
@<TRIPOS>BOND
     1    1    2 1
     2    1    3 1
     3    2    4 1
     4    3    5 1
     5    4    6 1
     6    5    7 1
     7    6    8 1
     8    7    9 1
     9    8    9 1
    10    9   10 1
    11    1   11 1
    12    1   12 1
    13    2   13 1
    14    2   14 1
    15    3   15 1
    16    3   16 1
    17    4   17 1
    18    4   18 1
    19    5   19 1
    20    5   20 1
    21    6   21 1
    22    6   22 1
    23    7   23 1
    24    7   24 1
    25    8   25 1
    26    8   26 1
    27    9   27 1
    28   10   28 1
    29   10   29 1
    30   10   30 1
@<TRIPOS>SUBSTRUCTURE
     1 <0>         1 GROUP 0 A     ****
