@<TRIPOS>MOLECULE
AlkEthOH_r1126
   27    27     1     0     0
SMALL
USER_CHARGES

@<TRIPOS>ATOM
      1 C1          0.9755    1.7636   -1.4496 CT        1 <0>       -0.06504
      2 C2          1.2798    0.2725   -1.6027 CT        1 <0>       -0.07573
      3 C3         -0.0710    2.1717   -0.4122 CT        1 <0>       -0.11788
      4 C4          1.8535   -0.4179   -0.3596 CT        1 <0>       -0.11413
      5 C5         -1.4636    1.5851   -0.6443 CT        1 <0>        0.14044
      6 C6          0.8245   -1.2310    0.4338 CT        1 <0>        0.34284
      7 C7         -1.3444   -0.2592    0.8789 CT        1 <0>        0.33423
      8 C8         -2.0836   -1.5753    1.1003 CT        1 <0>       -0.11640
      9 O1         -1.5553    0.1740   -0.4658 OS        1 <0>       -0.45114
     10 O2          0.0344   -0.3631    1.2372 OS        1 <0>       -0.42880
     11 O3          1.5501   -2.1203    1.2840 OH        1 <0>       -0.60746
     12 H1          1.9109    2.2872   -1.2138 HC        1 <0>        0.03500
     13 H2          0.6587    2.1458   -2.4287 HC        1 <0>        0.03500
     14 H3          0.4091   -0.2660   -1.9908 HC        1 <0>        0.04653
     15 H4          2.0383    0.1954   -2.3940 HC        1 <0>        0.04653
     16 H5          0.2957    1.9411    0.5915 HC        1 <0>        0.05739
     17 H6         -0.1616    3.2649   -0.4508 HC        1 <0>        0.05739
     18 H7          2.6402   -1.1073   -0.6947 HC        1 <0>        0.05363
     19 H8          2.3501    0.3110    0.2924 HC        1 <0>        0.05363
     20 H9         -2.1912    2.0747    0.0139 H1        1 <0>        0.04405
     21 H10        -1.7802    1.7984   -1.6712 H1        1 <0>        0.04405
     22 H11         0.2316   -1.8442   -0.2528 H2        1 <0>        0.04425
     23 H12        -1.7876    0.4716    1.5664 H2        1 <0>        0.07436
     24 H13        -1.6819   -2.3420    0.4390 HC        1 <0>        0.05433
     25 H14        -3.1444   -1.4446    0.8896 HC        1 <0>        0.05433
     26 H15        -1.9637   -1.8986    2.1336 HC        1 <0>        0.05433
     27 H16         2.0836   -2.6809    0.7010 HO        1 <0>        0.40427
@<TRIPOS>BOND
     1    1    2 1
     2    1    3 1
     3    2    4 1
     4    3    5 1
     5    4    6 1
     6    5    9 1
     7    6   10 1
     8    6   11 1
     9    7    8 1
    10    7    9 1
    11    7   10 1
    12    1   12 1
    13    1   13 1
    14    2   14 1
    15    2   15 1
    16    3   16 1
    17    3   17 1
    18    4   18 1
    19    4   19 1
    20    5   20 1
    21    5   21 1
    22    6   22 1
    23    7   23 1
    24    8   24 1
    25    8   25 1
    26    8   26 1
    27   11   27 1
@<TRIPOS>SUBSTRUCTURE
     1 <0>         1 GROUP 0 A     ****
