@<TRIPOS>MOLECULE
AlkEthOH_r810
   16    16     1     0     0
SMALL
USER_CHARGES

@<TRIPOS>ATOM
      1 C1         -0.9283    0.1808   -0.7079 CT        1 <0>       -0.13260
      2 C2         -0.3588   -1.0548   -0.0012 CT        1 <0>        0.12322
      3 C3          0.5236    0.6736   -0.7168 CT        1 <0>        0.12322
      4 C4         -0.2372   -2.3218   -0.8213 CT        1 <0>       -0.10419
      5 C5          1.2620    0.6147   -2.0376 CT        1 <0>       -0.10419
      6 O1          0.9310   -0.4088    0.1605 OS        1 <0>       -0.42942
      7 H1         -1.3577   -0.0091   -1.6951 HC        1 <0>        0.06007
      8 H2         -1.6242    0.7809   -0.1143 HC        1 <0>        0.06007
      9 H3         -0.8120   -1.2474    0.9791 H1        1 <0>        0.06520
     10 H4          0.6623    1.6402   -0.2169 H1        1 <0>        0.06520
     11 H5          0.2163   -2.1065   -1.7925 HC        1 <0>        0.04557
     12 H6         -1.2227   -2.7640   -0.9900 HC        1 <0>        0.04557
     13 H7          0.3869   -3.0545   -0.3026 HC        1 <0>        0.04557
     14 H8          1.1099   -0.3558   -2.5173 HC        1 <0>        0.04557
     15 H9          2.3344    0.7600   -1.8826 HC        1 <0>        0.04557
     16 H10         0.9006    1.3951   -2.7125 HC        1 <0>        0.04557
@<TRIPOS>BOND
     1    1    2 1
     2    1    3 1
     3    2    4 1
     4    2    6 1
     5    3    5 1
     6    3    6 1
     7    1    7 1
     8    1    8 1
     9    2    9 1
    10    3   10 1
    11    4   11 1
    12    4   12 1
    13    4   13 1
    14    5   14 1
    15    5   15 1
    16    5   16 1
@<TRIPOS>SUBSTRUCTURE
     1 <0>         1 GROUP 0 A     ****
