@<TRIPOS>MOLECULE
AlkEthOH_r397
   31    31     1     0     0
SMALL
USER_CHARGES

@<TRIPOS>ATOM
      1 C1         -1.1027    1.6684    1.8957 CT        1 <0>       -0.06663
      2 C2         -0.0404    0.5812    2.1089 CT        1 <0>       -0.06559
      3 C3         -2.3584    1.2231    1.1315 CT        1 <0>       -0.08083
      4 C4          1.1169    0.6600    1.0966 CT        1 <0>       -0.12669
      5 C5         -2.1283    0.2481   -0.0164 CT        1 <0>        0.14731
      6 C6          1.4384   -0.6374    0.3249 CT        1 <0>        0.36812
      7 C7         -0.2520   -0.2852   -1.4327 CT        1 <0>        0.54035
      8 C8          1.8274   -1.7635    1.2886 CT        1 <0>       -0.11465
      9 C9         -1.1050   -1.1938   -2.3337 CT        1 <0>       -0.11296
     10 O1         -1.0848    0.7305   -0.8540 OS        1 <0>       -0.48746
     11 O2          0.3566   -1.1549   -0.4592 OS        1 <0>       -0.43537
     12 O3          2.6070   -0.4216   -0.4776 OH        1 <0>       -0.59196
     13 O4          0.7253    0.3450   -2.2725 OH        1 <0>       -0.57485
     14 H1         -1.4340    2.0301    2.8780 HC        1 <0>        0.04113
     15 H2         -0.6638    2.5419    1.3986 HC        1 <0>        0.04113
     16 H3          0.3952    0.7371    3.1049 HC        1 <0>        0.04142
     17 H4         -0.5038   -0.4089    2.1442 HC        1 <0>        0.04142
     18 H5         -3.0664    0.7669    1.8344 HC        1 <0>        0.04348
     19 H6         -2.8468    2.1258    0.7435 HC        1 <0>        0.04348
     20 H7          0.9546    1.4750    0.3822 HC        1 <0>        0.05927
     21 H8          2.0229    0.9684    1.6383 HC        1 <0>        0.05927
     22 H9         -1.9045   -0.7438    0.3906 H1        1 <0>        0.03720
     23 H10        -3.0424    0.1591   -0.6134 H1        1 <0>        0.03720
     24 H11         2.0485   -2.6641    0.7227 HC        1 <0>        0.05103
     25 H12         1.0039   -1.9571    1.9702 HC        1 <0>        0.05103
     26 H13         2.7053   -1.4673    1.8559 HC        1 <0>        0.05103
     27 H14        -0.4753   -1.9629   -2.7722 HC        1 <0>        0.05975
     28 H15        -1.5549   -0.6000   -3.1245 HC        1 <0>        0.05975
     29 H16        -1.8871   -1.6601   -1.7411 HC        1 <0>        0.05975
     30 H17         3.3154   -0.1922    0.1394 HO        1 <0>        0.40055
     31 H18         0.2290    0.8491   -2.9335 HO        1 <0>        0.42332
@<TRIPOS>BOND
     1    1    2 1
     2    1    3 1
     3    2    4 1
     4    3    5 1
     5    4    6 1
     6    5   10 1
     7    6    8 1
     8    6   11 1
     9    6   12 1
    10    7    9 1
    11    7   10 1
    12    7   11 1
    13    7   13 1
    14    1   14 1
    15    1   15 1
    16    2   16 1
    17    2   17 1
    18    3   18 1
    19    3   19 1
    20    4   20 1
    21    4   21 1
    22    5   22 1
    23    5   23 1
    24    8   24 1
    25    8   25 1
    26    8   26 1
    27    9   27 1
    28    9   28 1
    29    9   29 1
    30   12   30 1
    31   13   31 1
@<TRIPOS>SUBSTRUCTURE
     1 <0>         1 GROUP 0 A     ****
