@<TRIPOS>MOLECULE
AlkEthOH_r273
   31    31     1     0     0
SMALL
USER_CHARGES

@<TRIPOS>ATOM
      1 C1          0.5897    1.5667   -2.1367 CT        1 <0>       -0.13217
      2 C2          0.2522   -0.8794    1.3865 CT        1 <0>       -0.12613
      3 C3         -0.5329    0.5548   -2.3687 CT        1 <0>        0.14237
      4 C4          1.8074    0.9828   -1.4076 CT        1 <0>        0.15413
      5 C5         -1.2905   -1.0294   -0.7210 CT        1 <0>        0.15085
      6 C6         -1.1787   -1.1182    0.8134 CT        1 <0>        0.14089
      7 C7          1.0808    0.3041    0.8243 CT        1 <0>        0.36318
      8 C8         -1.6726   -2.4971    1.2757 CT        1 <0>       -0.13038
      9 C9          2.3635    0.4580    1.6483 CT        1 <0>       -0.10841
     10 O1         -1.1739    0.3336   -1.1176 OS        1 <0>       -0.41302
     11 O2          1.4612   -0.0610   -0.5084 OS        1 <0>       -0.47035
     12 O3         -2.0701   -0.1438    1.3695 OH        1 <0>       -0.58267
     13 O4          0.3639    1.5289    0.9423 OH        1 <0>       -0.62286
     14 H1          0.9088    1.9704   -3.1046 HC        1 <0>        0.05867
     15 H2          0.1809    2.4063   -1.5641 HC        1 <0>        0.05867
     16 H3          0.1579   -0.7465    2.4608 HC        1 <0>        0.06069
     17 H4          0.8297   -1.7932    1.2835 HC        1 <0>        0.06069
     18 H5         -1.2683    0.9988   -3.0125 H1        1 <0>        0.03942
     19 H6         -0.1722   -0.3588   -2.7909 H1        1 <0>        0.03942
     20 H7          2.4998    0.5402   -2.1580 H1        1 <0>        0.04504
     21 H8          2.3912    1.7963   -0.9134 H1        1 <0>        0.04504
     22 H9         -0.5311   -1.6585   -1.2023 H1        1 <0>        0.04683
     23 H10        -2.2725   -1.3850   -1.0614 H1        1 <0>        0.04683
     24 H11        -2.6711   -2.6796    0.8839 HC        1 <0>        0.04662
     25 H12        -1.7026   -2.5305    2.3628 HC        1 <0>        0.04662
     26 H13        -0.9980   -3.2694    0.9118 HC        1 <0>        0.04662
     27 H14         2.9506    1.2869    1.2596 HC        1 <0>        0.04875
     28 H15         2.9490   -0.4566    1.5876 HC        1 <0>        0.04875
     29 H16         2.1092    0.6537    2.6875 HC        1 <0>        0.04875
     30 H17        -2.0412   -0.2822    2.3240 HO        1 <0>        0.39801
     31 H18         0.1982    1.6491    1.8871 HO        1 <0>        0.44915
@<TRIPOS>BOND
     1    1    3 1
     2    1    4 1
     3    2    6 1
     4    2    7 1
     5    3   10 1
     6    4   11 1
     7    5    6 1
     8    5   10 1
     9    6    8 1
    10    6   12 1
    11    7    9 1
    12    7   11 1
    13    7   13 1
    14    1   14 1
    15    1   15 1
    16    2   16 1
    17    2   17 1
    18    3   18 1
    19    3   19 1
    20    4   20 1
    21    4   21 1
    22    5   22 1
    23    5   23 1
    24    8   24 1
    25    8   25 1
    26    8   26 1
    27    9   27 1
    28    9   28 1
    29    9   29 1
    30   12   30 1
    31   13   31 1
@<TRIPOS>SUBSTRUCTURE
     1 <0>         1 GROUP 0 A     ****
