@<TRIPOS>MOLECULE
AlkEthOH_r348
   29    29     1     0     0
SMALL
USER_CHARGES

@<TRIPOS>ATOM
      1 C1          1.4805   -1.8356    0.7197 CT        1 <0>       -0.07603
      2 C2          0.4132   -2.1881   -0.3191 CT        1 <0>       -0.07321
      3 C3          1.2078   -0.6064    1.5894 CT        1 <0>       -0.06895
      4 C4          0.3023   -1.1920   -1.4777 CT        1 <0>       -0.06855
      5 C5          1.2711    0.7247    0.8366 CT        1 <0>       -0.10240
      6 C6         -1.1646    0.4359   -0.0463 CT        1 <0>       -0.09405
      7 C7         -0.8897   -0.2332   -1.3971 CT        1 <0>        0.14925
      8 C8         -0.0848    1.3798    0.5119 CT        1 <0>        0.16028
      9 C9         -0.6358    2.0788    1.7672 CT        1 <0>       -0.12530
     10 O1         -2.0764   -0.9683   -1.7284 OH        1 <0>       -0.60901
     11 O2          0.1764    2.4043   -0.4562 OH        1 <0>       -0.60338
     12 H1          1.5842   -2.6980    1.3912 HC        1 <0>        0.03722
     13 H2          2.4524   -1.7247    0.2227 HC        1 <0>        0.03722
     14 H3          0.7035   -3.1573   -0.7467 HC        1 <0>        0.04439
     15 H4         -0.5542   -2.3584    0.1656 HC        1 <0>        0.04439
     16 H5          0.2662   -0.7261    2.1350 HC        1 <0>        0.03882
     17 H6          1.9921   -0.5859    2.3581 HC        1 <0>        0.03882
     18 H7          1.2361   -0.6383   -1.6094 HC        1 <0>        0.05130
     19 H8          0.1844   -1.7811   -2.3981 HC        1 <0>        0.05130
     20 H9          1.8422    1.4329    1.4551 HC        1 <0>        0.04600
     21 H10         1.8882    0.6377   -0.0643 HC        1 <0>        0.04600
     22 H11        -2.0853    1.0237   -0.1824 HC        1 <0>        0.05250
     23 H12        -1.4464   -0.3186    0.6978 HC        1 <0>        0.05250
     24 H13        -0.7756    0.5350   -2.1706 H1        1 <0>        0.04811
     25 H14        -1.5901    2.5375    1.5310 HC        1 <0>        0.04271
     26 H15         0.0663    2.8404    2.0894 HC        1 <0>        0.04271
     27 H16        -0.7676    1.3454    2.5557 HC        1 <0>        0.04271
     28 H17        -2.8065   -0.3370   -1.6683 HO        1 <0>        0.39545
     29 H18         0.7921    3.0202   -0.0349 HO        1 <0>        0.39920
@<TRIPOS>BOND
     1    1    2 1
     2    1    3 1
     3    2    4 1
     4    3    5 1
     5    4    7 1
     6    5    8 1
     7    6    7 1
     8    6    8 1
     9    7   10 1
    10    8    9 1
    11    8   11 1
    12    1   12 1
    13    1   13 1
    14    2   14 1
    15    2   15 1
    16    3   16 1
    17    3   17 1
    18    4   18 1
    19    4   19 1
    20    5   20 1
    21    5   21 1
    22    6   22 1
    23    6   23 1
    24    7   24 1
    25    9   25 1
    26    9   26 1
    27    9   27 1
    28   10   28 1
    29   11   29 1
@<TRIPOS>SUBSTRUCTURE
     1 <0>         1 GROUP 0 A     ****
