@<TRIPOS>MOLECULE
AlkEthOH_r792
   20    20     1     0     0
SMALL
USER_CHARGES

@<TRIPOS>ATOM
      1 C1         -0.6882    1.1568    0.9539 CT        1 <0>       -0.11092
      2 C2          0.4549   -0.9731    0.2963 CT        1 <0>       -0.14672
      3 C3         -0.7848    1.4863   -0.5284 CT        1 <0>        0.12781
      4 C4         -0.6355   -0.3526    1.1672 CT        1 <0>        0.14331
      5 C5          0.2940   -0.5355   -1.1603 CT        1 <0>        0.14217
      6 C6          1.4382   -1.0567   -2.0186 CT        1 <0>       -0.09154
      7 O1          0.2961    0.8939   -1.2494 OS        1 <0>       -0.41290
      8 O2         -0.3747   -0.6193    2.5393 OH        1 <0>       -0.59670
      9 H1          0.2205    1.6085    1.3728 HC        1 <0>        0.06555
     10 H2         -1.5304    1.5910    1.5045 HC        1 <0>        0.06555
     11 H3          1.4343   -0.6571    0.6805 HC        1 <0>        0.05760
     12 H4          0.4300   -2.0659    0.3827 HC        1 <0>        0.05760
     13 H5         -1.7364    1.1448   -0.9523 H1        1 <0>        0.04845
     14 H6         -0.7281    2.5697   -0.6737 H1        1 <0>        0.04845
     15 H7         -1.6087   -0.7919    0.9175 H1        1 <0>        0.03092
     16 H8         -0.6519   -0.9128   -1.5690 H1        1 <0>        0.03332
     17 H9          2.3912   -0.6944   -1.6316 HC        1 <0>        0.04627
     18 H10         1.3213   -0.7126   -3.0467 HC        1 <0>        0.04627
     19 H11         1.4456   -2.1471   -2.0100 HC        1 <0>        0.04627
     20 H12        -0.3484   -1.5848    2.6364 HO        1 <0>        0.39924
@<TRIPOS>BOND
     1    1    3 1
     2    1    4 1
     3    2    4 1
     4    2    5 1
     5    3    7 1
     6    4    8 1
     7    5    6 1
     8    5    7 1
     9    1    9 1
    10    1   10 1
    11    2   11 1
    12    2   12 1
    13    3   13 1
    14    3   14 1
    15    4   15 1
    16    5   16 1
    17    6   17 1
    18    6   18 1
    19    6   19 1
    20    8   20 1
@<TRIPOS>SUBSTRUCTURE
     1 <0>         1 GROUP 0 A     ****
