@<TRIPOS>MOLECULE
AlkEthOH_r694
   30    30     1     0     0
SMALL
USER_CHARGES

@<TRIPOS>ATOM
      1 C1         -0.0412    2.1951    1.6177 CT        1 <0>       -0.07609
      2 C2         -0.1500    2.3852    0.1026 CT        1 <0>       -0.07114
      3 C3          0.1518    0.7786    2.1654 CT        1 <0>       -0.09907
      4 C4         -1.3168    1.6907   -0.6070 CT        1 <0>       -0.10392
      5 C5          1.2725   -0.0310    1.5101 CT        1 <0>        0.13760
      6 C6         -1.2147    0.1665   -0.7206 CT        1 <0>        0.33496
      7 C7          0.6731   -1.3315   -0.4594 CT        1 <0>        0.34836
      8 C8         -0.1331   -2.5943   -0.7901 CT        1 <0>       -0.10377
      9 C9          2.0891   -1.5128   -1.0225 CT        1 <0>       -0.10377
     10 O1          0.7342   -1.2402    0.9726 OS        1 <0>       -0.45972
     11 O2          0.1102   -0.1862   -1.1110 OS        1 <0>       -0.43010
     12 O3         -2.1750   -0.3201   -1.6579 OH        1 <0>       -0.62197
     13 H1          0.8029    2.8065    1.9637 HC        1 <0>        0.03564
     14 H2         -0.9333    2.6252    2.0908 HC        1 <0>        0.03564
     15 H3         -0.2665    3.4637   -0.0718 HC        1 <0>        0.04918
     16 H4          0.7969    2.1238   -0.3821 HC        1 <0>        0.04918
     17 H5          0.3899    0.8836    3.2325 HC        1 <0>        0.04852
     18 H6         -0.7992    0.2375    2.1404 HC        1 <0>        0.04852
     19 H7         -2.2701    1.9619   -0.1368 HC        1 <0>        0.05136
     20 H8         -1.3675    2.1055   -1.6235 HC        1 <0>        0.05136
     21 H9          1.8461    0.5428    0.7785 H1        1 <0>        0.04774
     22 H10         1.9801   -0.3374    2.2888 H1        1 <0>        0.04774
     23 H11        -1.4704   -0.2847    0.2609 H2        1 <0>        0.05396
     24 H12        -1.1426   -2.4920   -0.4015 HC        1 <0>        0.05414
     25 H13         0.3437   -3.4583   -0.3355 HC        1 <0>        0.05414
     26 H14        -0.1720   -2.7276   -1.8678 HC        1 <0>        0.05414
     27 H15         2.6820   -0.6300   -0.8011 HC        1 <0>        0.05414
     28 H16         2.0351   -1.6528   -2.0983 HC        1 <0>        0.05414
     29 H17         2.5509   -2.3837   -0.5661 HC        1 <0>        0.05414
     30 H18        -3.0444   -0.0591   -1.3190 HO        1 <0>        0.40495
@<TRIPOS>BOND
     1    1    2 1
     2    1    3 1
     3    2    4 1
     4    3    5 1
     5    4    6 1
     6    5   10 1
     7    6   11 1
     8    6   12 1
     9    7    8 1
    10    7    9 1
    11    7   10 1
    12    7   11 1
    13    1   13 1
    14    1   14 1
    15    2   15 1
    16    2   16 1
    17    3   17 1
    18    3   18 1
    19    4   19 1
    20    4   20 1
    21    5   21 1
    22    5   22 1
    23    6   23 1
    24    8   24 1
    25    8   25 1
    26    8   26 1
    27    9   27 1
    28    9   28 1
    29    9   29 1
    30   12   30 1
@<TRIPOS>SUBSTRUCTURE
     1 <0>         1 GROUP 0 A     ****
