@<TRIPOS>MOLECULE
AlkEthOH_r972
   28    28     1     0     0
SMALL
USER_CHARGES

@<TRIPOS>ATOM
      1 C1          0.1145    1.2483   -1.8596 CT        1 <0>       -0.09772
      2 C2         -1.0849    0.4142   -1.3859 CT        1 <0>       -0.06760
      3 C3         -0.7296   -1.0299    0.7327 CT        1 <0>       -0.06121
      4 C4          1.1107    1.6464   -0.7765 CT        1 <0>        0.12972
      5 C5          1.4565    0.2782    1.1570 CT        1 <0>        0.13650
      6 C6         -0.7107   -0.9686   -0.8112 CT        1 <0>       -0.06639
      7 C7         -0.0292    0.1034    1.5061 CT        1 <0>       -0.09815
      8 C8         -1.6744   -2.0368   -1.3507 CT        1 <0>       -0.09168
      9 C9         -0.1689   -0.1393    3.0141 CT        1 <0>       -0.09181
     10 O1          1.7159    0.4840   -0.2260 OS        1 <0>       -0.41909
     11 H1          0.6414    0.6787   -2.6358 HC        1 <0>        0.04599
     12 H2         -0.2638    2.1601   -2.3370 HC        1 <0>        0.04599
     13 H3         -1.6830    0.9896   -0.6700 HC        1 <0>        0.03702
     14 H4         -1.7300    0.2810   -2.2645 HC        1 <0>        0.03702
     15 H5         -1.7772   -1.0579    1.0640 HC        1 <0>        0.03712
     16 H6         -0.2949   -1.9908    1.0408 HC        1 <0>        0.03712
     17 H7          1.9115    2.2347   -1.2381 H1        1 <0>        0.03802
     18 H8          0.6476    2.2875   -0.0186 H1        1 <0>        0.03802
     19 H9          1.8890    1.1138    1.7210 H1        1 <0>        0.04414
     20 H10         2.0112   -0.6207    1.4496 H1        1 <0>        0.04414
     21 H11         0.2853   -1.2591   -1.1655 HC        1 <0>        0.07042
     22 H12        -0.5619    1.0358    1.2914 HC        1 <0>        0.05041
     23 H13        -2.6855   -1.8036   -1.0313 HC        1 <0>        0.03173
     24 H14        -1.3861   -3.0095   -0.9643 HC        1 <0>        0.03173
     25 H15        -1.6287   -2.0478   -2.4354 HC        1 <0>        0.03173
     26 H16         0.3452   -1.0582    3.2827 HC        1 <0>        0.03561
     27 H17        -1.2211   -0.2250    3.2716 HC        1 <0>        0.03561
     28 H18         0.2700    0.6929    3.5576 HC        1 <0>        0.03561
@<TRIPOS>BOND
     1    1    2 1
     2    1    4 1
     3    2    6 1
     4    3    6 1
     5    3    7 1
     6    4   10 1
     7    5    7 1
     8    5   10 1
     9    6    8 1
    10    7    9 1
    11    1   11 1
    12    1   12 1
    13    2   13 1
    14    2   14 1
    15    3   15 1
    16    3   16 1
    17    4   17 1
    18    4   18 1
    19    5   19 1
    20    5   20 1
    21    6   21 1
    22    7   22 1
    23    8   23 1
    24    8   24 1
    25    8   25 1
    26    9   26 1
    27    9   27 1
    28    9   28 1
@<TRIPOS>SUBSTRUCTURE
     1 <0>         1 GROUP 0 A     ****
