@<TRIPOS>MOLECULE
AlkEthOH_r485
   28    28     1     0     0
SMALL
USER_CHARGES

@<TRIPOS>ATOM
      1 C1          1.5000    1.3005   -1.0796 CT        1 <0>       -0.11304
      2 C2          2.0383    0.3341   -0.0197 CT        1 <0>       -0.11759
      3 C3          0.6937    0.6632   -2.2087 CT        1 <0>        0.12503
      4 C4         -1.3784    0.6405   -1.0044 CT        1 <0>        0.07733
      5 C5          0.9934   -0.4988    0.7495 CT        1 <0>        0.37331
      6 C6         -1.3789    0.1518    0.4541 CT        1 <0>        0.35548
      7 C7          1.6178   -0.9734    2.0690 CT        1 <0>       -0.10078
      8 C8         -2.3796    1.0073    1.2426 CT        1 <0>       -0.08202
      9 O1         -0.4379   -0.0880   -1.7866 OS        1 <0>       -0.42890
     10 O2         -0.1204    0.3276    1.1128 OS        1 <0>       -0.47149
     11 O3          0.6966   -1.6659   -0.0174 OH        1 <0>       -0.61249
     12 O4         -1.8447   -1.1989    0.4883 OH        1 <0>       -0.60399
     13 H1          0.9078    2.0741   -0.5782 HC        1 <0>        0.05768
     14 H2          2.3531    1.8261   -1.5271 HC        1 <0>        0.05768
     15 H3          2.7705   -0.3351   -0.4896 HC        1 <0>        0.05410
     16 H4          2.5928    0.9575    0.6948 HC        1 <0>        0.05410
     17 H5          0.3592    1.4357   -2.9112 H1        1 <0>        0.04809
     18 H6          1.3378   -0.0200   -2.7728 H1        1 <0>        0.04809
     19 H7         -2.3598    0.4426   -1.4513 H1        1 <0>        0.05916
     20 H8         -1.2026    1.7200   -1.0740 H1        1 <0>        0.05916
     21 H9          0.8912   -1.5622    2.6215 HC        1 <0>        0.05121
     22 H10         1.9111   -0.1111    2.6608 HC        1 <0>        0.05121
     23 H11         2.4920   -1.5822    1.8568 HC        1 <0>        0.05121
     24 H12        -2.3979    0.6804    2.2784 HC        1 <0>        0.05310
     25 H13        -3.3699    0.8964    0.8101 HC        1 <0>        0.05310
     26 H14        -2.0788    2.0502    1.1969 HC        1 <0>        0.05310
     27 H15         1.5315   -2.1477   -0.1169 HO        1 <0>        0.41864
     28 H16        -2.7408   -1.1872    0.1208 HO        1 <0>        0.42952
@<TRIPOS>BOND
     1    1    2 1
     2    1    3 1
     3    2    5 1
     4    3    9 1
     5    4    6 1
     6    4    9 1
     7    5    7 1
     8    5   10 1
     9    5   11 1
    10    6    8 1
    11    6   10 1
    12    6   12 1
    13    1   13 1
    14    1   14 1
    15    2   15 1
    16    2   16 1
    17    3   17 1
    18    3   18 1
    19    4   19 1
    20    4   20 1
    21    7   21 1
    22    7   22 1
    23    7   23 1
    24    8   24 1
    25    8   25 1
    26    8   26 1
    27   11   27 1
    28   12   28 1
@<TRIPOS>SUBSTRUCTURE
     1 <0>         1 GROUP 0 A     ****
