@<TRIPOS>MOLECULE
AlkEthOH_r340
   24    24     1     0     0
SMALL
USER_CHARGES

@<TRIPOS>ATOM
      1 C1          0.5390   -0.3911    0.8718 CT        1 <0>       -0.07517
      2 C2          1.5426   -1.4433    0.4137 CT        1 <0>       -0.07466
      3 C3          1.2178    0.7613    1.6035 CT        1 <0>       -0.07466
      4 C4          2.6631   -0.8282   -0.4246 CT        1 <0>       -0.06719
      5 C5          2.3377    1.3801    0.7671 CT        1 <0>       -0.06719
      6 C6          3.3792    0.3491    0.2758 CT        1 <0>       -0.05209
      7 C7          4.3224    1.0322   -0.7322 CT        1 <0>       -0.08615
      8 C8          4.2333   -0.1604    1.4528 CT        1 <0>       -0.08615
      9 H1         -0.0003   -0.0001    0.0000 HC        1 <0>        0.03749
     10 H2         -0.2087   -0.8541    1.5256 HC        1 <0>        0.03749
     11 H3          1.9630   -1.9576    1.2854 HC        1 <0>        0.03840
     12 H4          1.0244   -2.2069   -0.1781 HC        1 <0>        0.03840
     13 H5          0.4740    1.5307    1.8412 HC        1 <0>        0.03840
     14 H6          1.6151    0.4074    2.5617 HC        1 <0>        0.03840
     15 H7          3.3864   -1.6099   -0.6887 HC        1 <0>        0.03824
     16 H8          2.2291   -0.4783   -1.3711 HC        1 <0>        0.03824
     17 H9          1.8817    1.8773   -0.0999 HC        1 <0>        0.03824
     18 H10         2.8295    2.1688    1.3501 HC        1 <0>        0.03824
     19 H11         4.8267    1.8589   -0.2442 HC        1 <0>        0.03362
     20 H12         3.7413    1.4004   -1.5705 HC        1 <0>        0.03362
     21 H13         5.0534    0.3110   -1.0811 HC        1 <0>        0.03362
     22 H14         4.7242    0.6823    1.9266 HC        1 <0>        0.03362
     23 H15         4.9766   -0.8551    1.0780 HC        1 <0>        0.03362
     24 H16         3.5903   -0.6607    2.1682 HC        1 <0>        0.03362
@<TRIPOS>BOND
     1    1    2 1
     2    1    3 1
     3    2    4 1
     4    3    5 1
     5    4    6 1
     6    5    6 1
     7    6    7 1
     8    6    8 1
     9    1    9 1
    10    1   10 1
    11    2   11 1
    12    2   12 1
    13    3   13 1
    14    3   14 1
    15    4   15 1
    16    4   16 1
    17    5   17 1
    18    5   18 1
    19    7   19 1
    20    7   20 1
    21    7   21 1
    22    8   22 1
    23    8   23 1
    24    8   24 1
@<TRIPOS>SUBSTRUCTURE
     1 <0>         1 GROUP 0 A     ****
