@<TRIPOS>MOLECULE
AlkEthOH_r899
   31    31     1     0     0
SMALL
USER_CHARGES

@<TRIPOS>ATOM
      1 C1          1.5696   -1.3824   -1.3291 CT        1 <0>       -0.07326
      2 C2          0.3509   -2.2950   -1.1872 CT        1 <0>       -0.07395
      3 C3          2.0277   -0.7274   -0.0265 CT        1 <0>       -0.07390
      4 C4         -0.9771   -1.6117   -0.8561 CT        1 <0>       -0.07255
      5 C5          1.6466    0.7453    0.1243 CT        1 <0>       -0.07094
      6 C6         -1.0502   -1.0286    0.5599 CT        1 <0>       -0.09788
      7 C7          0.1987    1.1613   -0.1993 CT        1 <0>       -0.04762
      8 C8         -0.9177    0.5089    0.6710 CT        1 <0>        0.16278
      9 C9          0.1317    2.7042   -0.1573 CT        1 <0>       -0.09041
     10 C10        -0.7987    0.8738    2.1589 CT        1 <0>       -0.12205
     11 O1         -2.1816    1.0517    0.2416 OH        1 <0>       -0.60603
     12 H1          2.3933   -2.0154   -1.6858 HC        1 <0>        0.03928
     13 H2          1.4066   -0.6401   -2.1183 HC        1 <0>        0.03928
     14 H3          0.2219   -2.8241   -2.1403 HC        1 <0>        0.03591
     15 H4          0.5599   -3.0711   -0.4401 HC        1 <0>        0.03591
     16 H5          1.7129   -1.3045    0.8474 HC        1 <0>        0.03588
     17 H6          3.1257   -0.7675   -0.0006 HC        1 <0>        0.03588
     18 H7         -1.2342   -0.8705   -1.6199 HC        1 <0>        0.04470
     19 H8         -1.7517   -2.3870   -0.9303 HC        1 <0>        0.04470
     20 H9          1.9090    1.0675    1.1397 HC        1 <0>        0.03838
     21 H10         2.3148    1.3122   -0.5395 HC        1 <0>        0.03838
     22 H11        -2.0412   -1.2988    0.9548 HC        1 <0>        0.04069
     23 H12        -0.3400   -1.5369    1.2195 HC        1 <0>        0.04069
     24 H13        -0.0074    0.9197   -1.2465 HC        1 <0>        0.06176
     25 H14         0.3260    3.0367    0.8547 HC        1 <0>        0.03780
     26 H15        -0.8558    3.0213   -0.4683 HC        1 <0>        0.03780
     27 H16         0.8792    3.1065   -0.8296 HC        1 <0>        0.03780
     28 H17        -0.7047    1.9504    2.2574 HC        1 <0>        0.04183
     29 H18         0.0785    0.3910    2.5771 HC        1 <0>        0.04183
     30 H19        -1.6867    0.5353    2.6829 HC        1 <0>        0.04183
     31 H20        -2.8393    0.6878    0.8469 HO        1 <0>        0.39548
@<TRIPOS>BOND
     1    1    2 1
     2    1    3 1
     3    2    4 1
     4    3    5 1
     5    4    6 1
     6    5    7 1
     7    6    8 1
     8    7    8 1
     9    7    9 1
    10    8   10 1
    11    8   11 1
    12    1   12 1
    13    1   13 1
    14    2   14 1
    15    2   15 1
    16    3   16 1
    17    3   17 1
    18    4   18 1
    19    4   19 1
    20    5   20 1
    21    5   21 1
    22    6   22 1
    23    6   23 1
    24    7   24 1
    25    9   25 1
    26    9   26 1
    27    9   27 1
    28   10   28 1
    29   10   29 1
    30   10   30 1
    31   11   31 1
@<TRIPOS>SUBSTRUCTURE
     1 <0>         1 GROUP 0 A     ****
