@<TRIPOS>MOLECULE
AlkEthOH_r275
   28    28     1     0     0
SMALL
USER_CHARGES

@<TRIPOS>ATOM
      1 C1          1.2822    2.2072    0.7859 CT        1 <0>       -0.13919
      2 C2         -0.3910   -1.6067    0.1556 CT        1 <0>       -0.13690
      3 C3          0.1616    2.4157   -0.2338 CT        1 <0>        0.14201
      4 C4          0.8909    1.3120    1.9665 CT        1 <0>        0.13176
      5 C5         -1.1318    0.5619   -1.0606 CT        1 <0>        0.14210
      6 C6          0.6888   -0.8535    0.9429 CT        1 <0>        0.33755
      7 C7         -0.8703   -0.9523   -1.1685 CT        1 <0>        0.14849
      8 C8          0.1107   -1.2655   -2.3069 CT        1 <0>       -0.11831
      9 O1          0.1032    1.2662   -1.0706 OS        1 <0>       -0.43320
     10 O2          0.0423    0.2340    1.6002 OS        1 <0>       -0.41188
     11 O3          1.2388   -1.7586    1.8973 OH        1 <0>       -0.62519
     12 O4         -2.1254   -1.5604   -1.5081 OH        1 <0>       -0.60043
     13 H1          2.1433    1.7565    0.2776 HC        1 <0>        0.05555
     14 H2          1.6132    3.1743    1.1813 HC        1 <0>        0.05555
     15 H3         -0.0496   -2.6296   -0.0556 HC        1 <0>        0.06347
     16 H4         -1.2645   -1.7436    0.8101 HC        1 <0>        0.06347
     17 H5         -0.7936    2.6475    0.2501 H1        1 <0>        0.04555
     18 H6          0.4219    3.2615   -0.8787 H1        1 <0>        0.04555
     19 H7          1.7785    0.9457    2.4947 H1        1 <0>        0.05752
     20 H8          0.3237    1.9172    2.6826 H1        1 <0>        0.05752
     21 H9         -1.7204    0.9116   -1.9171 H1        1 <0>        0.05752
     22 H10        -1.7352    0.7715   -0.1688 H1        1 <0>        0.05752
     23 H11         1.4912   -0.5240    0.2748 H2        1 <0>        0.05369
     24 H12        -0.2398   -0.8007   -3.2238 HC        1 <0>        0.04713
     25 H13         0.1715   -2.3410   -2.4456 HC        1 <0>        0.04713
     26 H14         1.0927   -0.8759   -2.0548 HC        1 <0>        0.04713
     27 H15         1.6118   -2.4978    1.3929 HO        1 <0>        0.40809
     28 H16        -1.9447   -2.5048   -1.6107 HO        1 <0>        0.40080
@<TRIPOS>BOND
     1    1    3 1
     2    1    4 1
     3    2    6 1
     4    2    7 1
     5    3    9 1
     6    4   10 1
     7    5    7 1
     8    5    9 1
     9    6   10 1
    10    6   11 1
    11    7    8 1
    12    7   12 1
    13    1   13 1
    14    1   14 1
    15    2   15 1
    16    2   16 1
    17    3   17 1
    18    3   18 1
    19    4   19 1
    20    4   20 1
    21    5   21 1
    22    5   22 1
    23    6   23 1
    24    8   24 1
    25    8   25 1
    26    8   26 1
    27   11   27 1
    28   12   28 1
@<TRIPOS>SUBSTRUCTURE
     1 <0>         1 GROUP 0 A     ****
