@<TRIPOS>MOLECULE
AlkEthOH_r206
   24    24     1     0     0
SMALL
USER_CHARGES

@<TRIPOS>ATOM
      1 C1         -0.8115    1.5429   -1.5365 CT        1 <0>        0.09431
      2 C2          0.0627    1.8990   -0.3440 CT        1 <0>        0.09742
      3 C3         -1.1936   -0.7423   -0.9221 CT        1 <0>        0.09782
      4 C4         -0.6135   -0.7479    0.4927 CT        1 <0>        0.08786
      5 C5          0.8423   -0.2159    0.5853 CT        1 <0>        0.16009
      6 C6          1.8630   -1.2670    0.1107 CT        1 <0>       -0.09758
      7 C7          1.1794    0.1370    2.0445 CT        1 <0>       -0.09758
      8 O1         -1.7615    0.5275   -1.2327 OS        1 <0>       -0.41616
      9 O2          1.1027    0.9379   -0.2229 OS        1 <0>       -0.42491
     10 O3         -0.6701   -2.0713    1.0251 OH        1 <0>       -0.59125
     11 H1         -1.3880    2.4251   -1.8327 H1        1 <0>        0.05989
     12 H2         -0.2111    1.2280   -2.3978 H1        1 <0>        0.05989
     13 H3          0.5528    2.8573   -0.5443 H1        1 <0>        0.05805
     14 H4         -0.5075    2.0018    0.5846 H1        1 <0>        0.05805
     15 H5         -0.4651   -1.0388   -1.6849 H1        1 <0>        0.05900
     16 H6         -2.0116   -1.4694   -0.9836 H1        1 <0>        0.05900
     17 H7         -1.2624   -0.1261    1.1270 H1        1 <0>        0.04615
     18 H8          2.8631   -0.8551    0.1919 HC        1 <0>        0.04777
     19 H9          1.6557   -1.5244   -0.9224 HC        1 <0>        0.04777
     20 H10         1.7795   -2.1517    0.7327 HC        1 <0>        0.04777
     21 H11         2.1978    0.5070    2.0962 HC        1 <0>        0.04777
     22 H12         1.0813   -0.7518    2.6586 HC        1 <0>        0.04777
     23 H13         0.4939    0.9014    2.3945 HC        1 <0>        0.04777
     24 H14        -1.6057   -2.3233    1.0327 HO        1 <0>        0.40333
@<TRIPOS>BOND
     1    1    2 1
     2    1    8 1
     3    2    9 1
     4    3    4 1
     5    3    8 1
     6    4    5 1
     7    4   10 1
     8    5    6 1
     9    5    7 1
    10    5    9 1
    11    1   11 1
    12    1   12 1
    13    2   13 1
    14    2   14 1
    15    3   15 1
    16    3   16 1
    17    4   17 1
    18    6   18 1
    19    6   19 1
    20    6   20 1
    21    7   21 1
    22    7   22 1
    23    7   23 1
    24   10   24 1
@<TRIPOS>SUBSTRUCTURE
     1 <0>         1 GROUP 0 A     ****
