@<TRIPOS>MOLECULE
AlkEthOH_r324
   19    19     1     0     0
SMALL
USER_CHARGES

@<TRIPOS>ATOM
      1 C1         -0.9842    0.2390   -0.4155 CT        1 <0>       -0.07565
      2 C2         -1.7579   -1.0206   -0.8077 CT        1 <0>       -0.07565
      3 C3         -1.8545    0.9725    0.6038 CT        1 <0>       -0.08654
      4 C4         -3.0710   -0.9767   -0.0265 CT        1 <0>       -0.08654
      5 C5         -3.2731    0.5031    0.2891 CT        1 <0>        0.14324
      6 C6         -4.2560    0.7432    1.4239 CT        1 <0>       -0.11847
      7 O1         -3.7498    1.1624   -0.8831 OH        1 <0>       -0.59539
      8 H1         -0.0003   -0.0002    0.0005 HC        1 <0>        0.04284
      9 H2         -0.8218    0.8653   -1.3004 HC        1 <0>        0.04284
     10 H3         -1.9532   -1.0163   -1.8864 HC        1 <0>        0.04284
     11 H4         -1.1934   -1.9309   -0.5816 HC        1 <0>        0.04284
     12 H5         -1.5581    0.6750    1.6169 HC        1 <0>        0.04982
     13 H6         -1.7340    2.0567    0.5101 HC        1 <0>        0.04982
     14 H7         -3.8889   -1.4037   -0.6160 HC        1 <0>        0.04982
     15 H8         -2.9651   -1.5624    0.8947 HC        1 <0>        0.04982
     16 H9         -5.2490    0.3891    1.1426 HC        1 <0>        0.04291
     17 H10        -4.3146    1.8087    1.6513 HC        1 <0>        0.04291
     18 H11        -3.9336    0.2099    2.3196 HC        1 <0>        0.04291
     19 H12        -4.6476    0.8316   -1.0383 HO        1 <0>        0.39563
@<TRIPOS>BOND
     1    1    2 1
     2    1    3 1
     3    2    4 1
     4    3    5 1
     5    4    5 1
     6    5    6 1
     7    5    7 1
     8    1    8 1
     9    1    9 1
    10    2   10 1
    11    2   11 1
    12    3   12 1
    13    3   13 1
    14    4   14 1
    15    4   15 1
    16    6   16 1
    17    6   17 1
    18    6   18 1
    19    7   19 1
@<TRIPOS>SUBSTRUCTURE
     1 <0>         1 GROUP 0 A     ****
