@<TRIPOS>MOLECULE
AlkEthOH_r339
   26    26     1     0     0
SMALL
USER_CHARGES

@<TRIPOS>ATOM
      1 C1          0.0272    0.4713   -0.9900 CT        1 <0>       -0.07159
      2 C2         -1.3939    0.7601   -1.4555 CT        1 <0>       -0.07153
      3 C3          0.7697   -0.4337   -1.9724 CT        1 <0>       -0.10245
      4 C4         -2.1709   -0.5273   -1.7281 CT        1 <0>       -0.10245
      5 C5          0.0084   -1.7475   -2.2534 CT        1 <0>        0.16714
      6 C6         -1.4447   -1.4526   -2.7286 CT        1 <0>        0.16714
      7 C7          0.8104   -2.5810   -3.2637 CT        1 <0>       -0.11748
      8 C8         -2.2798   -2.7265   -2.9246 CT        1 <0>       -0.11748
      9 O1         -0.0547   -2.4970   -1.0333 OH        1 <0>       -0.60209
     10 O2         -1.3828   -0.7817   -3.9936 OH        1 <0>       -0.60209
     11 H1          0.5745    1.4140   -0.8764 HC        1 <0>        0.04146
     12 H2         -0.0003    0.0008    0.0003 HC        1 <0>        0.04146
     13 H3         -1.9172    1.3484   -0.6930 HC        1 <0>        0.04146
     14 H4         -1.3644    1.3753   -2.3629 HC        1 <0>        0.04146
     15 H5          0.9408    0.1131   -2.9082 HC        1 <0>        0.05129
     16 H6          1.7556   -0.6568   -1.5446 HC        1 <0>        0.05129
     17 H7         -2.3401   -1.0533   -0.7802 HC        1 <0>        0.05129
     18 H8         -3.1561   -0.2484   -2.1231 HC        1 <0>        0.05129
     19 H9          0.2815   -3.5072   -3.4669 HC        1 <0>        0.04654
     20 H10         1.7890   -2.8044   -2.8499 HC        1 <0>        0.04654
     21 H11         0.9248   -2.0179   -4.1850 HC        1 <0>        0.04654
     22 H12        -1.7757   -3.3830   -3.6273 HC        1 <0>        0.04654
     23 H13        -3.2578   -2.4597   -3.3136 HC        1 <0>        0.04654
     24 H14        -2.3934   -3.2329   -1.9709 HC        1 <0>        0.04654
     25 H15         0.8622   -2.6628   -0.7737 HO        1 <0>        0.40132
     26 H16        -2.2997   -0.6200   -4.2558 HO        1 <0>        0.40132
@<TRIPOS>BOND
     1    1    2 1
     2    1    3 1
     3    2    4 1
     4    3    5 1
     5    4    6 1
     6    5    6 1
     7    5    7 1
     8    5    9 1
     9    6    8 1
    10    6   10 1
    11    1   11 1
    12    1   12 1
    13    2   13 1
    14    2   14 1
    15    3   15 1
    16    3   16 1
    17    4   17 1
    18    4   18 1
    19    7   19 1
    20    7   20 1
    21    7   21 1
    22    8   22 1
    23    8   23 1
    24    8   24 1
    25    9   25 1
    26   10   26 1
@<TRIPOS>SUBSTRUCTURE
     1 <0>         1 GROUP 0 A     ****
