@<TRIPOS>MOLECULE
AlkEthOH_r994
   20    20     1     0     0
SMALL
USER_CHARGES

@<TRIPOS>ATOM
      1 C1          0.3762    0.5866    1.4838 CT        1 <0>       -0.11202
      2 C2          0.1485    0.4314   -1.0074 CT        1 <0>       -0.14038
      3 C3         -0.2495   -0.8010    1.5594 CT        1 <0>        0.13051
      4 C4          1.0940    0.7855    0.1443 CT        1 <0>       -0.06254
      5 C5         -0.4712   -0.9505   -0.7966 CT        1 <0>        0.33358
      6 C6          1.6187    2.2119    0.0073 CT        1 <0>       -0.08977
      7 O1         -1.1388   -1.0178    0.4645 OS        1 <0>       -0.39600
      8 O2         -1.3779   -1.2460   -1.8554 OH        1 <0>       -0.57599
      9 H1         -0.4168    1.3389    1.5828 HC        1 <0>        0.05449
     10 H2          1.0725    0.7296    2.3176 HC        1 <0>        0.05449
     11 H3         -0.6543    1.1787   -1.0686 HC        1 <0>        0.05893
     12 H4          0.6736    0.4661   -1.9695 HC        1 <0>        0.05893
     13 H5          0.5176   -1.5842    1.5667 H1        1 <0>        0.04925
     14 H6         -0.8288   -0.8976    2.4832 H1        1 <0>        0.04925
     15 H7          1.9534    0.1026    0.1079 HC        1 <0>        0.04562
     16 H8          0.3234   -1.7267   -0.8139 H2        1 <0>        0.02566
     17 H9          0.7887    2.9166    0.0397 HC        1 <0>        0.03679
     18 H10         2.1436    2.3240   -0.9404 HC        1 <0>        0.03679
     19 H11         2.3056    2.4337    0.8230 HC        1 <0>        0.03679
     20 H12        -0.8615   -1.2246   -2.6762 HO        1 <0>        0.40562
@<TRIPOS>BOND
     1    1    3 1
     2    1    4 1
     3    2    4 1
     4    2    5 1
     5    3    7 1
     6    4    6 1
     7    5    7 1
     8    5    8 1
     9    1    9 1
    10    1   10 1
    11    2   11 1
    12    2   12 1
    13    3   13 1
    14    3   14 1
    15    4   15 1
    16    5   16 1
    17    6   17 1
    18    6   18 1
    19    6   19 1
    20    8   20 1
@<TRIPOS>SUBSTRUCTURE
     1 <0>         1 GROUP 0 A     ****
