@<TRIPOS>MOLECULE
AlkEthOH_r164
   18    18     1     0     0
SMALL
USER_CHARGES

@<TRIPOS>ATOM
      1 C1         -0.8301   -0.3045    1.1711 CT        1 <0>       -0.14648
      2 C2         -0.7043   -1.5162    0.2565 CT        1 <0>        0.14446
      3 C3          0.6296    1.1280   -0.3783 CT        1 <0>        0.13902
      4 C4          0.9982   -1.0224   -1.3387 CT        1 <0>        0.32725
      5 C5         -0.6393    1.0415    0.4665 CT        1 <0>        0.11556
      6 O1          0.6577   -1.6792   -0.1214 OS        1 <0>       -0.45596
      7 O2          0.4975    0.2979   -1.5243 OS        1 <0>       -0.45107
      8 O3         -0.6093    2.0548    1.4686 OH        1 <0>       -0.59747
      9 H1         -1.8153   -0.3100    1.6537 HC        1 <0>        0.05620
     10 H2         -0.0954   -0.3835    1.9836 HC        1 <0>        0.05620
     11 H3         -0.9862   -2.4118    0.8201 H1        1 <0>        0.05488
     12 H4         -1.3648   -1.4554   -0.6165 H1        1 <0>        0.05488
     13 H5          0.7551    2.1564   -0.7358 H1        1 <0>        0.06627
     14 H6          1.5326    0.8929    0.1989 H1        1 <0>        0.06627
     15 H7          2.0909   -0.9931   -1.4070 H2        1 <0>        0.06101
     16 H8          0.6408   -1.6341   -2.1739 H2        1 <0>        0.06101
     17 H9         -1.5136    1.2230   -0.1707 H1        1 <0>        0.04520
     18 H10        -1.4598    2.0098    1.9321 HO        1 <0>        0.40277
@<TRIPOS>BOND
     1    1    2 1
     2    1    5 1
     3    2    6 1
     4    3    5 1
     5    3    7 1
     6    4    6 1
     7    4    7 1
     8    5    8 1
     9    1    9 1
    10    1   10 1
    11    2   11 1
    12    2   12 1
    13    3   13 1
    14    3   14 1
    15    4   15 1
    16    4   16 1
    17    5   17 1
    18    8   18 1
@<TRIPOS>SUBSTRUCTURE
     1 <0>         1 GROUP 0 A     ****
