@<TRIPOS>MOLECULE
AlkEthOH_r215
   22    22     1     0     0
SMALL
USER_CHARGES

@<TRIPOS>ATOM
      1 C1         -2.0202    0.1496   -0.3812 CT        1 <0>        0.10272
      2 C2         -1.6898   -1.1196    0.3778 CT        1 <0>        0.10284
      3 C3          0.2782    0.7684   -0.4029 CT        1 <0>        0.33544
      4 C4          0.6136   -0.5243    0.3891 CT        1 <0>        0.33544
      5 C5          1.3802    1.1677   -1.3897 CT        1 <0>       -0.10627
      6 C6          1.7590   -0.3322    1.3857 CT        1 <0>       -0.10627
      7 O1         -0.9082    0.5426   -1.1847 OS        1 <0>       -0.43538
      8 O2         -0.5237   -0.9220    1.1756 OS        1 <0>       -0.43538
      9 O3          0.0872    1.8477    0.5185 OH        1 <0>       -0.61643
     10 O4          1.0237   -1.5780   -0.4882 OH        1 <0>       -0.61643
     11 H1         -2.8760   -0.0143   -1.0429 H1        1 <0>        0.06057
     12 H2         -2.2755    0.9661    0.3034 H1        1 <0>        0.06057
     13 H3         -2.5148   -1.3921    1.0427 H1        1 <0>        0.06057
     14 H4         -1.5182   -1.9579   -0.3064 H1        1 <0>        0.06057
     15 H5          1.0895    2.0756   -1.9121 HC        1 <0>        0.06014
     16 H6          1.5295    0.3686   -2.1114 HC        1 <0>        0.06014
     17 H7          2.3067    1.3434   -0.8490 HC        1 <0>        0.06014
     18 H8          1.9471   -1.2668    1.9076 HC        1 <0>        0.06014
     19 H9          1.4889    0.4355    2.1060 HC        1 <0>        0.06014
     20 H10         2.6567   -0.0286    0.8535 HC        1 <0>        0.06014
     21 H11        -0.1183    2.6271   -0.0175 HO        1 <0>        0.41830
     22 H12         1.2128   -2.3405    0.0769 HO        1 <0>        0.41830
@<TRIPOS>BOND
     1    1    2 1
     2    1    7 1
     3    2    8 1
     4    3    4 1
     5    3    5 1
     6    3    7 1
     7    3    9 1
     8    4    6 1
     9    4    8 1
    10    4   10 1
    11    1   11 1
    12    1   12 1
    13    2   13 1
    14    2   14 1
    15    5   15 1
    16    5   16 1
    17    5   17 1
    18    6   18 1
    19    6   19 1
    20    6   20 1
    21    9   21 1
    22   10   22 1
@<TRIPOS>SUBSTRUCTURE
     1 <0>         1 GROUP 0 A     ****
