@<TRIPOS>MOLECULE
AlkEthOH_r950
   26    26     1     0     0
SMALL
USER_CHARGES

@<TRIPOS>ATOM
      1 C1         -0.1117    0.3733   -1.9197 CT        1 <0>       -0.07208
      2 C2          1.0510   -0.6121   -2.0906 CT        1 <0>       -0.09838
      3 C3          0.0855    1.3958   -0.7922 CT        1 <0>       -0.07563
      4 C4          1.3018   -1.5264   -0.8964 CT        1 <0>        0.12694
      5 C5          0.8084   -0.8058    1.3312 CT        1 <0>        0.10241
      6 C6         -0.7137    1.1246    0.5021 CT        1 <0>       -0.05139
      7 C7         -0.6166   -0.3181    1.0496 CT        1 <0>        0.11337
      8 C8         -2.1843    1.5304    0.2952 CT        1 <0>       -0.09053
      9 O1          1.6972   -0.7496    0.2265 OS        1 <0>       -0.41007
     10 O2         -1.3176   -0.4121    2.2943 OH        1 <0>       -0.59635
     11 H1         -0.1968    0.9288   -2.8630 HC        1 <0>        0.03778
     12 H2         -1.0543   -0.1731   -1.8105 HC        1 <0>        0.03778
     13 H3          0.8563   -1.2325   -2.9734 HC        1 <0>        0.04796
     14 H4          1.9627   -0.0378   -2.2982 HC        1 <0>        0.04796
     15 H5          1.1500    1.5092   -0.5561 HC        1 <0>        0.04991
     16 H6         -0.2136    2.3814   -1.1743 HC        1 <0>        0.04991
     17 H7          0.4377   -2.1671   -0.6899 H1        1 <0>        0.03959
     18 H8          2.1389   -2.1918   -1.1347 H1        1 <0>        0.03959
     19 H9          1.2484   -0.1987    2.1315 H1        1 <0>        0.04907
     20 H10         0.7863   -1.8313    1.7219 H1        1 <0>        0.04907
     21 H11        -0.3237    1.8046    1.2724 HC        1 <0>        0.05933
     22 H12        -1.1118   -1.0080    0.3585 H1        1 <0>        0.03310
     23 H13        -2.6282    0.8906   -0.4598 HC        1 <0>        0.03796
     24 H14        -2.2267    2.5643   -0.0300 HC        1 <0>        0.03796
     25 H15        -2.7204    1.4186    1.2315 HC        1 <0>        0.03796
     26 H16        -1.2867   -1.3447    2.5515 HO        1 <0>        0.39678
@<TRIPOS>BOND
     1    1    2 1
     2    1    3 1
     3    2    4 1
     4    3    6 1
     5    4    9 1
     6    5    7 1
     7    5    9 1
     8    6    7 1
     9    6    8 1
    10    7   10 1
    11    1   11 1
    12    1   12 1
    13    2   13 1
    14    2   14 1
    15    3   15 1
    16    3   16 1
    17    4   17 1
    18    4   18 1
    19    5   19 1
    20    5   20 1
    21    6   21 1
    22    7   22 1
    23    8   23 1
    24    8   24 1
    25    8   25 1
    26   10   26 1
@<TRIPOS>SUBSTRUCTURE
     1 <0>         1 GROUP 0 A     ****
