@<TRIPOS>MOLECULE
AlkEthOH_r2
   14    14     1     0     0
SMALL
USER_CHARGES

@<TRIPOS>ATOM
      1 C1         -0.6658    0.6763   -0.4931 CT        1 <0>       -0.12439
      2 C2          0.5879   -0.6334    0.6301 CT        1 <0>       -0.12433
      3 C3         -0.8870   -0.6970    0.1766 CT        1 <0>        0.12273
      4 C4          0.5162    0.9009    0.4751 CT        1 <0>        0.12273
      5 O1         -1.2327   -1.7772   -0.7060 OH        1 <0>       -0.58067
      6 O2          1.6815    1.5305   -0.0827 OH        1 <0>       -0.58067
      7 H1         -0.3801    0.6228   -1.5500 HC        1 <0>        0.06862
      8 H2         -1.4936    1.3831   -0.3864 HC        1 <0>        0.06862
      9 H3          0.7760   -0.9886    1.6471 HC        1 <0>        0.06862
     10 H4          1.2922   -1.1238   -0.0518 HC        1 <0>        0.06862
     11 H5         -1.5914   -0.6456    1.0165 H1        1 <0>        0.04351
     12 H6          0.2118    1.4049    1.4012 H1        1 <0>        0.04351
     13 H7         -1.3358   -2.5560   -0.1430 HO        1 <0>        0.40155
     14 H8          2.3182    1.5968    0.6414 HO        1 <0>        0.40155
@<TRIPOS>BOND
     1    1    3 1
     2    1    4 1
     3    2    3 1
     4    2    4 1
     5    3    5 1
     6    4    6 1
     7    1    7 1
     8    1    8 1
     9    2    9 1
    10    2   10 1
    11    3   11 1
    12    4   12 1
    13    5   13 1
    14    6   14 1
@<TRIPOS>SUBSTRUCTURE
     1 <0>         1 GROUP 0 A     ****
