@<TRIPOS>MOLECULE
AlkEthOH_r423
   27    27     1     0     0
SMALL
USER_CHARGES

@<TRIPOS>ATOM
      1 C1          0.3609    2.0885   -0.0485 CT        1 <0>       -0.05825
      2 C2          0.5012    1.4216   -1.4194 CT        1 <0>       -0.10966
      3 C3          0.1667    1.1724    1.1693 CT        1 <0>       -0.09969
      4 C4          1.5894    0.3531   -1.5201 CT        1 <0>        0.14530
      5 C5          0.4215   -1.4212   -0.3721 CT        1 <0>        0.52782
      6 C6         -0.9155    0.0724    1.0523 CT        1 <0>        0.18084
      7 C7         -0.8912   -0.8211    2.3025 CT        1 <0>       -0.10757
      8 C8         -2.3062    0.7227    0.9596 CT        1 <0>       -0.10757
      9 O1          1.5900   -0.6038   -0.4674 OS        1 <0>       -0.44753
     10 O2         -0.8019   -0.7243   -0.1341 OS        1 <0>       -0.49023
     11 O3          0.2853   -2.2605   -1.5223 OH        1 <0>       -0.62108
     12 H1          1.2518    2.7034    0.1324 HC        1 <0>        0.03510
     13 H2         -0.4793    2.7923   -0.0979 HC        1 <0>        0.03510
     14 H3         -0.4642    1.0007   -1.7197 HC        1 <0>        0.05069
     15 H4          0.7133    2.1987   -2.1648 HC        1 <0>        0.05069
     16 H5          1.1333    0.7187    1.4182 HC        1 <0>        0.05371
     17 H6         -0.0647    1.8099    2.0340 HC        1 <0>        0.05371
     18 H7          1.5299   -0.1608   -2.4861 H1        1 <0>        0.05355
     19 H8          2.5673    0.8462   -1.4884 H1        1 <0>        0.05355
     20 H9          0.5953   -2.0970    0.4708 H3        1 <0>        0.09398
     21 H10        -1.6532   -1.5887    2.2107 HC        1 <0>        0.04546
     22 H11        -1.0887   -0.2152    3.1813 HC        1 <0>        0.04546
     23 H12         0.0855   -1.2864    2.3929 HC        1 <0>        0.04546
     24 H13        -3.0601   -0.0535    0.8778 HC        1 <0>        0.04546
     25 H14        -2.3449    1.3628    0.0842 HC        1 <0>        0.04546
     26 H15        -2.4858    1.3135    1.8521 HC        1 <0>        0.04546
     27 H16        -0.5210   -2.7790   -1.3854 HO        1 <0>        0.43478
@<TRIPOS>BOND
     1    1    2 1
     2    1    3 1
     3    2    4 1
     4    3    6 1
     5    4    9 1
     6    5    9 1
     7    5   10 1
     8    5   11 1
     9    6    7 1
    10    6    8 1
    11    6   10 1
    12    1   12 1
    13    1   13 1
    14    2   14 1
    15    2   15 1
    16    3   16 1
    17    3   17 1
    18    4   18 1
    19    4   19 1
    20    5   20 1
    21    7   21 1
    22    7   22 1
    23    7   23 1
    24    8   24 1
    25    8   25 1
    26    8   26 1
    27   11   27 1
@<TRIPOS>SUBSTRUCTURE
     1 <0>         1 GROUP 0 A     ****
