@<TRIPOS>MOLECULE
AlkEthOH_r29
   24    24     1     0     0
SMALL
USER_CHARGES

@<TRIPOS>ATOM
      1 C1         -1.6065    0.2677    1.4565 CT        1 <0>       -0.08239
      2 C2         -0.2315    0.8786    1.7920 CT        1 <0>       -0.11117
      3 C3          0.2546   -0.3061   -2.2774 CT        1 <0>       -0.14644
      4 C4         -1.8751    0.0217   -0.0277 CT        1 <0>        0.12418
      5 C5         -0.8754   -1.2321   -1.8103 CT        1 <0>        0.13309
      6 C6          1.3926   -0.1497   -1.2670 CT        1 <0>        0.14763
      7 C7          0.9639    0.2509    1.0660 CT        1 <0>        0.32489
      8 O1         -1.1459   -1.1375   -0.4195 OS        1 <0>       -0.43271
      9 O2          0.9712    0.7663   -0.2616 OS        1 <0>       -0.45740
     10 O3          2.1520    0.6403    1.7489 OH        1 <0>       -0.61568
     11 H1         -1.6943   -0.6835    1.9968 HC        1 <0>        0.05485
     12 H2         -2.3784    0.9371    1.8544 HC        1 <0>        0.05485
     13 H3         -0.2660    1.9509    1.5574 HC        1 <0>        0.05820
     14 H4         -0.0830    0.8127    2.8773 HC        1 <0>        0.05820
     15 H5          0.6465   -0.6905   -3.2260 HC        1 <0>        0.05567
     16 H6         -0.1706    0.6836   -2.4847 HC        1 <0>        0.05567
     17 H7         -2.9393   -0.1864   -0.1823 H1        1 <0>        0.03970
     18 H8         -1.6102    0.9032   -0.6203 H1        1 <0>        0.03970
     19 H9         -1.7894   -1.0649   -2.3917 H1        1 <0>        0.04565
     20 H10        -0.5673   -2.2678   -1.9923 H1        1 <0>        0.04565
     21 H11         1.7127   -1.1167   -0.8632 H1        1 <0>        0.04973
     22 H12         2.2541    0.3046   -1.7675 H1        1 <0>        0.04973
     23 H13         0.8862   -0.8420    1.1039 H2        1 <0>        0.10122
     24 H14         2.0719    0.3067    2.6561 HO        1 <0>        0.40718
@<TRIPOS>BOND
     1    1    2 1
     2    1    4 1
     3    2    7 1
     4    3    5 1
     5    3    6 1
     6    4    8 1
     7    5    8 1
     8    6    9 1
     9    7    9 1
    10    7   10 1
    11    1   11 1
    12    1   12 1
    13    2   13 1
    14    2   14 1
    15    3   15 1
    16    3   16 1
    17    4   17 1
    18    4   18 1
    19    5   19 1
    20    5   20 1
    21    6   21 1
    22    6   22 1
    23    7   23 1
    24   10   24 1
@<TRIPOS>SUBSTRUCTURE
     1 <0>         1 GROUP 0 A     ****
