@<TRIPOS>MOLECULE
AlkEthOH_r920
   26    26     1     0     0
SMALL
USER_CHARGES

@<TRIPOS>ATOM
      1 C1          2.0512    0.4221    0.8400 CT        1 <0>       -0.07113
      2 C2          1.4358   -0.9770    0.7321 CT        1 <0>       -0.07698
      3 C3          2.0832    1.2063   -0.4775 CT        1 <0>       -0.09937
      4 C4          0.0012   -1.0976    1.2598 CT        1 <0>       -0.06371
      5 C5          0.7184    1.5250   -1.0772 CT        1 <0>        0.14568
      6 C6         -1.0199   -0.0458    0.7829 CT        1 <0>       -0.08200
      7 C7         -1.1658    0.0736   -0.7522 CT        1 <0>        0.35245
      8 C8         -2.3821   -0.3327    1.4306 CT        1 <0>       -0.09004
      9 O1          0.0594    0.3177   -1.4360 OS        1 <0>       -0.46422
     10 O2         -1.7815   -1.0916   -1.3025 OH        1 <0>       -0.59710
     11 H1          1.5642    1.0119    1.6246 HC        1 <0>        0.03659
     12 H2          3.0947    0.3039    1.1610 HC        1 <0>        0.03659
     13 H3          1.5006   -1.3595   -0.2928 HC        1 <0>        0.04783
     14 H4          2.0492   -1.6637    1.3309 HC        1 <0>        0.04783
     15 H5          2.6210    2.1471   -0.3102 HC        1 <0>        0.04748
     16 H6          2.6669    0.6297   -1.2064 HC        1 <0>        0.04748
     17 H7         -0.3651   -2.1031    1.0154 HC        1 <0>        0.04389
     18 H8          0.0457   -1.0554    2.3568 HC        1 <0>        0.04389
     19 H9          0.1211    2.1568   -0.4113 H1        1 <0>        0.04002
     20 H10         0.8662    2.0941   -2.0017 H1        1 <0>        0.04002
     21 H11        -0.6935    0.9237    1.1750 HC        1 <0>        0.04678
     22 H12        -1.8454    0.9292   -0.9803 H2        1 <0>        0.02286
     23 H13        -2.7560   -1.2884    1.0756 HC        1 <0>        0.04009
     24 H14        -3.0815    0.4534    1.1624 HC        1 <0>        0.04009
     25 H15        -2.2683   -0.3653    2.5101 HC        1 <0>        0.04009
     26 H16        -1.8384   -0.9443   -2.2582 HO        1 <0>        0.42489
@<TRIPOS>BOND
     1    1    2 1
     2    1    3 1
     3    2    4 1
     4    3    5 1
     5    4    6 1
     6    5    9 1
     7    6    7 1
     8    6    8 1
     9    7    9 1
    10    7   10 1
    11    1   11 1
    12    1   12 1
    13    2   13 1
    14    2   14 1
    15    3   15 1
    16    3   16 1
    17    4   17 1
    18    4   18 1
    19    5   19 1
    20    5   20 1
    21    6   21 1
    22    7   22 1
    23    8   23 1
    24    8   24 1
    25    8   25 1
    26   10   26 1
@<TRIPOS>SUBSTRUCTURE
     1 <0>         1 GROUP 0 A     ****
