@<TRIPOS>MOLECULE
AlkEthOH_r538
   28    28     1     0     0
SMALL
USER_CHARGES

@<TRIPOS>ATOM
      1 C1          0.5426    1.4696    0.5743 CT        1 <0>       -0.10618
      2 C2          0.3874    1.9215   -0.8722 CT        1 <0>        0.12668
      3 C3         -0.5972   -0.1257   -1.5327 CT        1 <0>        0.13029
      4 C4          0.6309   -0.0746    0.7121 CT        1 <0>       -0.03715
      5 C5         -0.5421   -0.7470   -0.1141 CT        1 <0>       -0.07093
      6 C6          2.0250   -0.5297    0.2094 CT        1 <0>       -0.08923
      7 C7          0.5750   -0.4198    2.2177 CT        1 <0>       -0.08923
      8 C8         -0.3657   -2.2727   -0.2682 CT        1 <0>       -0.08656
      9 C9         -1.9207   -0.5149    0.5555 CT        1 <0>       -0.08656
     10 O1         -0.7351    1.2932   -1.4818 OS        1 <0>       -0.41073
     11 H1          1.4242    1.9512    1.0150 HC        1 <0>        0.05048
     12 H2         -0.3224    1.8348    1.1420 HC        1 <0>        0.05048
     13 H3          0.2180    3.0029   -0.9023 H1        1 <0>        0.04451
     14 H4          1.2880    1.7208   -1.4629 H1        1 <0>        0.04451
     15 H5          0.2865   -0.3798   -2.1297 H1        1 <0>        0.04671
     16 H6         -1.4619   -0.5122   -2.0850 H1        1 <0>        0.04671
     17 H7          2.0927   -1.6047    0.3028 HC        1 <0>        0.03545
     18 H8          2.7837   -0.0528    0.8144 HC        1 <0>        0.03545
     19 H9          2.1324   -0.2363   -0.8257 HC        1 <0>        0.03545
     20 H10         0.6354   -1.4945    2.3336 HC        1 <0>        0.03545
     21 H11        -0.3585   -0.0546    2.6268 HC        1 <0>        0.03545
     22 H12         1.4100    0.0548    2.7176 HC        1 <0>        0.03545
     23 H13        -0.3251   -2.7245    0.7157 HC        1 <0>        0.03725
     24 H14         0.5558   -2.4692   -0.8029 HC        1 <0>        0.03725
     25 H15        -1.2068   -2.6710   -0.8230 HC        1 <0>        0.03725
     26 H16        -1.8999   -0.9430    1.5481 HC        1 <0>        0.03725
     27 H17        -2.6817   -0.9956   -0.0435 HC        1 <0>        0.03725
     28 H18        -2.1040    0.5492    0.6105 HC        1 <0>        0.03725
@<TRIPOS>BOND
     1    1    2 1
     2    1    4 1
     3    2   10 1
     4    3    5 1
     5    3   10 1
     6    4    5 1
     7    4    6 1
     8    4    7 1
     9    5    8 1
    10    5    9 1
    11    1   11 1
    12    1   12 1
    13    2   13 1
    14    2   14 1
    15    3   15 1
    16    3   16 1
    17    6   17 1
    18    6   18 1
    19    6   19 1
    20    7   20 1
    21    7   21 1
    22    7   22 1
    23    8   23 1
    24    8   24 1
    25    8   25 1
    26    9   26 1
    27    9   27 1
    28    9   28 1
@<TRIPOS>SUBSTRUCTURE
     1 <0>         1 GROUP 0 A     ****
