@<TRIPOS>MOLECULE
AlkEthOH_r252
   28    28     1     0     0
SMALL
USER_CHARGES

@<TRIPOS>ATOM
      1 C1         -2.6164   -0.3175   -0.4180 CT        1 <0>       -0.11257
      2 C2          1.2740    0.8013   -0.0861 CT        1 <0>       -0.16332
      3 C3         -2.3298   -0.3711    1.0901 CT        1 <0>        0.13691
      4 C4         -1.4492    0.1145   -1.3015 CT        1 <0>        0.15378
      5 C5         -0.0472   -0.4564    1.7574 CT        1 <0>        0.13736
      6 C6          1.2491    0.2392    1.3461 CT        1 <0>        0.14951
      7 C7          0.9481   -0.1739   -1.2418 CT        1 <0>        0.36151
      8 C8          1.9550   -1.3275   -1.2726 CT        1 <0>       -0.11700
      9 O1         -1.1679    0.3733    1.4434 OS        1 <0>       -0.41071
     10 O2         -0.3487   -0.7662   -1.1045 OS        1 <0>       -0.42107
     11 O3          1.4627    1.3250    2.2535 OH        1 <0>       -0.58777
     12 O4          1.0702    0.5593   -2.4660 OH        1 <0>       -0.62293
     13 H1         -2.9749   -1.3058   -0.7306 HC        1 <0>        0.05022
     14 H2         -3.4502    0.3740   -0.5918 HC        1 <0>        0.05022
     15 H3          0.6110    1.6748   -0.1318 HC        1 <0>        0.06186
     16 H4          2.2665    1.2407   -0.2645 HC        1 <0>        0.06186
     17 H5         -3.1769    0.0732    1.6245 H1        1 <0>        0.04217
     18 H6         -2.2657   -1.4107    1.4354 H1        1 <0>        0.04217
     19 H7         -1.7446    0.0577   -2.3549 H1        1 <0>        0.04859
     20 H8         -1.1985    1.1580   -1.0897 H1        1 <0>        0.04859
     21 H9         -0.1127   -1.4293    1.2579 H1        1 <0>        0.05030
     22 H10        -0.0652   -0.6332    2.8386 H1        1 <0>        0.05030
     23 H11         2.0846   -0.4550    1.4890 H1        1 <0>        0.02830
     24 H12         1.7115   -2.0023   -2.0896 HC        1 <0>        0.05244
     25 H13         1.9151   -1.8715   -0.3321 HC        1 <0>        0.05244
     26 H14         2.9575   -0.9326   -1.4182 HC        1 <0>        0.05244
     27 H15         2.3279    1.6977    2.0304 HO        1 <0>        0.39535
     28 H16         1.9852    0.8727   -2.5021 HO        1 <0>        0.40905
@<TRIPOS>BOND
     1    1    3 1
     2    1    4 1
     3    2    6 1
     4    2    7 1
     5    3    9 1
     6    4   10 1
     7    5    6 1
     8    5    9 1
     9    6   11 1
    10    7    8 1
    11    7   10 1
    12    7   12 1
    13    1   13 1
    14    1   14 1
    15    2   15 1
    16    2   16 1
    17    3   17 1
    18    3   18 1
    19    4   19 1
    20    4   20 1
    21    5   21 1
    22    5   22 1
    23    6   23 1
    24    8   24 1
    25    8   25 1
    26    8   26 1
    27   11   27 1
    28   12   28 1
@<TRIPOS>SUBSTRUCTURE
     1 <0>         1 GROUP 0 A     ****
