@<TRIPOS>MOLECULE
AlkEthOH_r145
   24    24     1     0     0
SMALL
USER_CHARGES

@<TRIPOS>ATOM
      1 C1         -0.8875    1.4774   -0.5361 CT        1 <0>       -0.12072
      2 C2         -0.1592   -1.9737   -0.1403 CT        1 <0>       -0.12072
      3 C3          0.6322    0.1311    1.1182 CT        1 <0>       -0.15418
      4 C4         -0.1977    1.0262   -1.8243 CT        1 <0>        0.13371
      5 C5         -0.5020   -1.3190   -1.4725 CT        1 <0>        0.13371
      6 C6         -0.0107    1.4670    0.7187 CT        1 <0>        0.15349
      7 C7         -0.3108   -1.0797    1.0994 CT        1 <0>        0.15349
      8 O1          0.4063   -0.2577   -1.7391 OS        1 <0>       -0.42368
      9 O2          1.0233    2.4390    0.5523 OH        1 <0>       -0.60142
     10 O3          0.0063   -1.9107    2.2237 OH        1 <0>       -0.60142
     11 H1         -1.2468    2.5014   -0.7025 HC        1 <0>        0.05575
     12 H2         -1.7794    0.8689   -0.3550 HC        1 <0>        0.05575
     13 H3         -0.7865   -2.8651   -0.0115 HC        1 <0>        0.05575
     14 H4          0.8744   -2.3441   -0.1768 HC        1 <0>        0.05575
     15 H5          1.5247   -0.0610    0.5088 HC        1 <0>        0.06322
     16 H6          1.0441    0.2645    2.1288 HC        1 <0>        0.06322
     17 H7         -0.9105    1.0324   -2.6575 H1        1 <0>        0.04860
     18 H8          0.5958    1.7356   -2.0829 H1        1 <0>        0.04860
     19 H9         -0.3698   -2.0583   -2.2702 H1        1 <0>        0.04860
     20 H10        -1.5504   -1.0030   -1.5072 H1        1 <0>        0.04860
     21 H11        -0.6334    1.8115    1.5539 H1        1 <0>        0.05265
     22 H12        -1.3560   -0.7766    1.2210 H1        1 <0>        0.05265
     23 H13         1.5586    2.4083    1.3592 HO        1 <0>        0.39930
     24 H14         0.9162   -2.2097    2.0876 HO        1 <0>        0.39930
@<TRIPOS>BOND
     1    1    4 1
     2    1    6 1
     3    2    5 1
     4    2    7 1
     5    3    6 1
     6    3    7 1
     7    4    8 1
     8    5    8 1
     9    6    9 1
    10    7   10 1
    11    1   11 1
    12    1   12 1
    13    2   13 1
    14    2   14 1
    15    3   15 1
    16    3   16 1
    17    4   17 1
    18    4   18 1
    19    5   19 1
    20    5   20 1
    21    6   21 1
    22    7   22 1
    23    9   23 1
    24   10   24 1
@<TRIPOS>SUBSTRUCTURE
     1 <0>         1 GROUP 0 A     ****
