@<TRIPOS>MOLECULE
AlkEthOH_r621
   33    33     1     0     0
SMALL
USER_CHARGES

@<TRIPOS>ATOM
      1 C1          1.2560    1.9153    0.2225 CT        1 <0>       -0.06862
      2 C2          2.3020    0.9115   -0.2764 CT        1 <0>       -0.11067
      3 C3          0.5091    1.5151    1.5086 CT        1 <0>       -0.09599
      4 C4          2.0483    0.4245   -1.7070 CT        1 <0>        0.13716
      5 C5          0.2551   -1.1240   -1.3193 CT        1 <0>        0.10843
      6 C6         -1.1194   -0.8823   -0.6622 CT        1 <0>        0.17734
      7 C7         -0.3220    0.2105    1.4482 CT        1 <0>        0.36403
      8 C8         -2.1306   -0.4564   -1.7456 CT        1 <0>       -0.10313
      9 C9         -1.6578   -2.1577   -0.0025 CT        1 <0>       -0.10313
     10 C10        -1.3210    0.2093    2.6132 CT        1 <0>       -0.14118
     11 O1          0.6894    0.0795   -1.9505 OS        1 <0>       -0.41476
     12 O2         -1.0860    0.2329    0.2384 OS        1 <0>       -0.42257
     13 O3          0.5768   -0.8783    1.6326 OH        1 <0>       -0.62578
     14 H1          1.7738    2.8608    0.4326 HC        1 <0>        0.05313
     15 H2          0.5277    2.1583   -0.5598 HC        1 <0>        0.05313
     16 H3          3.2925    1.3835   -0.2533 HC        1 <0>        0.04554
     17 H4          2.3817    0.0549    0.3961 HC        1 <0>        0.04554
     18 H5          1.2336    1.4529    2.3309 HC        1 <0>        0.04383
     19 H6         -0.1627    2.3534    1.7376 HC        1 <0>        0.04383
     20 H7          2.2926    1.2355   -2.4021 H1        1 <0>        0.04047
     21 H8          2.7026   -0.4187   -1.9572 H1        1 <0>        0.04047
     22 H9          0.9953   -1.4883   -0.6028 H1        1 <0>        0.04916
     23 H10         0.1727   -1.8916   -2.0979 H1        1 <0>        0.04916
     24 H11        -3.0958   -0.2869   -1.2826 HC        1 <0>        0.04599
     25 H12        -2.2106   -1.2446   -2.4852 HC        1 <0>        0.04599
     26 H13        -1.7827    0.4560   -2.2160 HC        1 <0>        0.04599
     27 H14        -2.6246   -1.9523    0.4492 HC        1 <0>        0.04599
     28 H15        -0.9637   -2.4902    0.7646 HC        1 <0>        0.04599
     29 H16        -1.7674   -2.9360   -0.7530 HC        1 <0>        0.04599
     30 H17        -1.9114   -0.7020    2.5825 HC        1 <0>        0.04869
     31 H18        -1.9782    1.0699    2.5269 HC        1 <0>        0.04869
     32 H19        -0.7798    0.2592    3.5538 HC        1 <0>        0.04869
     33 H20         0.9888   -0.7539    2.5021 HO        1 <0>        0.41260
@<TRIPOS>BOND
     1    1    2 1
     2    1    3 1
     3    2    4 1
     4    3    7 1
     5    4   11 1
     6    5    6 1
     7    5   11 1
     8    6    8 1
     9    6    9 1
    10    6   12 1
    11    7   10 1
    12    7   12 1
    13    7   13 1
    14    1   14 1
    15    1   15 1
    16    2   16 1
    17    2   17 1
    18    3   18 1
    19    3   19 1
    20    4   20 1
    21    4   21 1
    22    5   22 1
    23    5   23 1
    24    8   24 1
    25    8   25 1
    26    8   26 1
    27    9   27 1
    28    9   28 1
    29    9   29 1
    30   10   30 1
    31   10   31 1
    32   10   32 1
    33   13   33 1
@<TRIPOS>SUBSTRUCTURE
     1 <0>         1 GROUP 0 A     ****
