@<TRIPOS>MOLECULE
AlkEthOH_r460
   17    17     1     0     0
SMALL
USER_CHARGES

@<TRIPOS>ATOM
      1 C1         -0.4903    0.9801    1.3659 CT        1 <0>       -0.10951
      2 C2         -0.4758   -0.4975    1.0506 CT        1 <0>       -0.09295
      3 C3          0.7035    1.4810    0.5816 CT        1 <0>        0.12975
      4 C4         -0.0454   -0.4959   -0.4107 CT        1 <0>        0.33412
      5 C5          0.6466   -1.7871   -0.8205 CT        1 <0>       -0.10954
      6 O1          0.8643    0.6086   -0.5466 OS        1 <0>       -0.45879
      7 O2         -1.2029   -0.2894   -1.2203 OH        1 <0>       -0.61848
      8 H1         -1.4103    1.4368    0.9821 HC        1 <0>        0.06130
      9 H2         -0.4216    1.2020    2.4341 HC        1 <0>        0.06130
     10 H3          0.2720   -0.9908    1.6832 HC        1 <0>        0.06563
     11 H4         -1.4493   -0.9671    1.2202 HC        1 <0>        0.06563
     12 H5          0.5759    2.5108    0.2360 H1        1 <0>        0.04857
     13 H6          1.6204    1.4244    1.1776 H1        1 <0>        0.04857
     14 H7          0.9361   -1.7407   -1.8712 HC        1 <0>        0.05210
     15 H8         -0.0254   -2.6345   -0.6779 HC        1 <0>        0.05210
     16 H9          1.5412   -1.9417   -0.2156 HC        1 <0>        0.05210
     17 H10        -0.8979   -0.2934   -2.1401 HO        1 <0>        0.41810
@<TRIPOS>BOND
     1    1    2 1
     2    1    3 1
     3    2    4 1
     4    3    6 1
     5    4    5 1
     6    4    6 1
     7    4    7 1
     8    1    8 1
     9    1    9 1
    10    2   10 1
    11    2   11 1
    12    3   12 1
    13    3   13 1
    14    5   14 1
    15    5   15 1
    16    5   16 1
    17    7   17 1
@<TRIPOS>SUBSTRUCTURE
     1 <0>         1 GROUP 0 A     ****
