@<TRIPOS>MOLECULE
AlkEthOH_r961
   26    26     1     0     0
SMALL
USER_CHARGES

@<TRIPOS>ATOM
      1 C1          2.1507   -0.1938    0.4700 CT        1 <0>       -0.10561
      2 C2          1.3502   -1.4680    0.1983 CT        1 <0>       -0.10140
      3 C3          1.3267    0.9348    1.0751 CT        1 <0>        0.13914
      4 C4          0.1134   -1.2434   -0.6755 CT        1 <0>        0.14902
      5 C5         -0.8399    0.8791    0.0067 CT        1 <0>        0.34780
      6 C6         -0.4999   -2.5823   -1.0733 CT        1 <0>       -0.09807
      7 C7         -1.7221    1.4056    1.1457 CT        1 <0>       -0.10673
      8 C8         -1.4566    1.3357   -1.3214 CT        1 <0>       -0.10673
      9 O1          0.4551    1.4815    0.0927 OS        1 <0>       -0.45475
     10 O2         -0.8775   -0.5493    0.0818 OS        1 <0>       -0.44942
     11 H1          2.9754   -0.4399    1.1490 HC        1 <0>        0.04975
     12 H2          2.5947    0.1469   -0.4735 HC        1 <0>        0.04975
     13 H3          2.0187   -2.1939   -0.2805 HC        1 <0>        0.04885
     14 H4          1.0446   -1.8941    1.1627 HC        1 <0>        0.04885
     15 H5          0.7939    0.6132    1.9755 H1        1 <0>        0.05032
     16 H6          2.0066    1.7406    1.3717 H1        1 <0>        0.05032
     17 H7          0.3790   -0.7003   -1.5889 H1        1 <0>        0.05385
     18 H8         -0.7740   -3.1444   -0.1813 HC        1 <0>        0.04304
     19 H9          0.2184   -3.1621   -1.6517 HC        1 <0>        0.04304
     20 H10        -1.3916   -2.4170   -1.6770 HC        1 <0>        0.04304
     21 H11        -1.3057    1.0950    2.0999 HC        1 <0>        0.05099
     22 H12        -2.7264    1.0044    1.0413 HC        1 <0>        0.05099
     23 H13        -1.7595    2.4907    1.1031 HC        1 <0>        0.05099
     24 H14        -0.8488    0.9746   -2.1465 HC        1 <0>        0.05099
     25 H15        -1.4956    2.4212   -1.3488 HC        1 <0>        0.05099
     26 H16        -2.4627    0.9350   -1.4106 HC        1 <0>        0.05099
@<TRIPOS>BOND
     1    1    2 1
     2    1    3 1
     3    2    4 1
     4    3    9 1
     5    4    6 1
     6    4   10 1
     7    5    7 1
     8    5    8 1
     9    5    9 1
    10    5   10 1
    11    1   11 1
    12    1   12 1
    13    2   13 1
    14    2   14 1
    15    3   15 1
    16    3   16 1
    17    4   17 1
    18    6   18 1
    19    6   19 1
    20    6   20 1
    21    7   21 1
    22    7   22 1
    23    7   23 1
    24    8   24 1
    25    8   25 1
    26    8   26 1
@<TRIPOS>SUBSTRUCTURE
     1 <0>         1 GROUP 0 A     ****
