@<TRIPOS>MOLECULE
AlkEthOH_r437
   35    35     1     0     0
SMALL
USER_CHARGES

@<TRIPOS>ATOM
      1 C1         -0.2790   -2.3314   -0.6639 CT        1 <0>       -0.05972
      2 C2         -0.2624   -1.4643   -1.9226 CT        1 <0>       -0.11618
      3 C3         -0.2950   -1.6142    0.6951 CT        1 <0>       -0.10707
      4 C4         -1.5239   -0.6234   -2.1093 CT        1 <0>        0.13425
      5 C5         -0.7810    1.4258   -1.1428 CT        1 <0>        0.11077
      6 C6          0.8858   -0.6737    1.0400 CT        1 <0>        0.17816
      7 C7         -0.0090    1.5688    0.1835 CT        1 <0>        0.15331
      8 C8          2.2248   -1.3837    0.7397 CT        1 <0>       -0.10458
      9 C9          0.8972   -0.3783    2.5516 CT        1 <0>       -0.10458
     10 C10        -0.9669    1.7577    1.3633 CT        1 <0>       -0.10318
     11 C11         0.8414    2.8516    0.0722 CT        1 <0>       -0.10318
     12 O1         -1.6982    0.3387   -1.0771 OS        1 <0>       -0.42392
     13 O2          0.9662    0.5263    0.2705 OS        1 <0>       -0.43746
     14 H1         -1.1609   -2.9844   -0.7072 HC        1 <0>        0.03501
     15 H2          0.5820   -3.0097   -0.7009 HC        1 <0>        0.03501
     16 H3          0.6320   -0.8352   -1.9250 HC        1 <0>        0.05457
     17 H4         -0.1708   -2.1299   -2.7899 HC        1 <0>        0.05457
     18 H5         -1.2480   -1.0932    0.8066 HC        1 <0>        0.05418
     19 H6         -0.3214   -2.4102    1.4534 HC        1 <0>        0.05418
     20 H7         -1.5149   -0.1213   -3.0841 H1        1 <0>        0.04256
     21 H8         -2.4038   -1.2760   -2.0967 H1        1 <0>        0.04256
     22 H9         -1.3768    2.3262   -1.3335 H1        1 <0>        0.04563
     23 H10        -0.0848    1.3156   -1.9837 H1        1 <0>        0.04563
     24 H11         3.0400   -0.7146    0.9855 HC        1 <0>        0.04201
     25 H12         2.2591   -1.6385   -0.3122 HC        1 <0>        0.04201
     26 H13         2.2887   -2.2820    1.3410 HC        1 <0>        0.04201
     27 H14         1.7279    0.2805    2.7794 HC        1 <0>        0.04201
     28 H15         1.0082   -1.3099    3.0955 HC        1 <0>        0.04201
     29 H16        -0.0363    0.0992    2.8282 HC        1 <0>        0.04201
     30 H17        -0.3970    1.8557    2.2842 HC        1 <0>        0.04457
     31 H18        -1.6272    0.8970    1.4386 HC        1 <0>        0.04457
     32 H19        -1.5614    2.6553    1.2106 HC        1 <0>        0.04457
     33 H20         1.4007    2.9856    0.9905 HC        1 <0>        0.04457
     34 H21         0.1843    3.6984   -0.0863 HC        1 <0>        0.04457
     35 H22         1.5233    2.7519   -0.7639 HC        1 <0>        0.04457
@<TRIPOS>BOND
     1    1    2 1
     2    1    3 1
     3    2    4 1
     4    3    6 1
     5    4   12 1
     6    5    7 1
     7    5   12 1
     8    6    8 1
     9    6    9 1
    10    6   13 1
    11    7   10 1
    12    7   11 1
    13    7   13 1
    14    1   14 1
    15    1   15 1
    16    2   16 1
    17    2   17 1
    18    3   18 1
    19    3   19 1
    20    4   20 1
    21    4   21 1
    22    5   22 1
    23    5   23 1
    24    8   24 1
    25    8   25 1
    26    8   26 1
    27    9   27 1
    28    9   28 1
    29    9   29 1
    30   10   30 1
    31   10   31 1
    32   10   32 1
    33   11   33 1
    34   11   34 1
    35   11   35 1
@<TRIPOS>SUBSTRUCTURE
     1 <0>         1 GROUP 0 A     ****
