@<TRIPOS>MOLECULE
AlkEthOH_r147
   22    22     1     0     0
SMALL
USER_CHARGES

@<TRIPOS>ATOM
      1 C1          0.6666    1.3663   -1.2566 CT        1 <0>       -0.14665
      2 C2          0.4731   -0.7823    1.5327 CT        1 <0>       -0.14658
      3 C3          0.8238    1.8634    0.1801 CT        1 <0>        0.13585
      4 C4         -0.0647    0.5749    2.0007 CT        1 <0>        0.13585
      5 C5          0.5514   -0.1559   -1.3827 CT        1 <0>        0.35745
      6 C6         -0.3532   -1.4504    0.4247 CT        1 <0>        0.35745
      7 O1         -0.3195    1.5039    0.9508 OS        1 <0>       -0.40927
      8 O2         -0.6100   -0.5900   -0.6809 OS        1 <0>       -0.48856
      9 O3          0.4235   -0.4630   -2.7704 OH        1 <0>       -0.59931
     10 O4         -1.5909   -1.8669    1.0014 OH        1 <0>       -0.59931
     11 H1         -0.2421    1.8150   -1.6801 HC        1 <0>        0.06407
     12 H2          1.5047    1.7246   -1.8659 HC        1 <0>        0.06407
     13 H3          1.5025   -0.6512    1.1839 HC        1 <0>        0.06407
     14 H4          0.5224   -1.4486    2.4028 HC        1 <0>        0.06407
     15 H5          1.7597    1.5101    0.6270 H1        1 <0>        0.04995
     16 H6          0.8699    2.9578    0.1684 H1        1 <0>        0.04995
     17 H7         -1.0139    0.4253    2.5265 H1        1 <0>        0.04995
     18 H8          0.6274    1.0286    2.7198 H1        1 <0>        0.04995
     19 H9          1.4681   -0.6383   -1.0248 H2        1 <0>        0.05260
     20 H10         0.1652   -2.3506    0.0732 H2        1 <0>        0.05260
     21 H11         1.2231   -0.1248   -3.2012 HO        1 <0>        0.42090
     22 H12        -2.0978   -2.2853    0.2893 HO        1 <0>        0.42090
@<TRIPOS>BOND
     1    1    3 1
     2    1    5 1
     3    2    4 1
     4    2    6 1
     5    3    7 1
     6    4    7 1
     7    5    8 1
     8    5    9 1
     9    6    8 1
    10    6   10 1
    11    1   11 1
    12    1   12 1
    13    2   13 1
    14    2   14 1
    15    3   15 1
    16    3   16 1
    17    4   17 1
    18    4   18 1
    19    5   19 1
    20    6   20 1
    21    9   21 1
    22   10   22 1
@<TRIPOS>SUBSTRUCTURE
     1 <0>         1 GROUP 0 A     ****
