@<TRIPOS>MOLECULE
AlkEthOH_r195
   18    18     1     0     0
SMALL
USER_CHARGES

@<TRIPOS>ATOM
      1 C1         -0.2884    0.9542    1.3805 CT        1 <0>       -0.14512
      2 C2         -1.0674   -0.3475    1.3878 CT        1 <0>        0.13719
      3 C3          0.7235    0.7186    0.2794 CT        1 <0>        0.12713
      4 C4         -0.0890   -0.1046   -0.7210 CT        1 <0>        0.33777
      5 C5          0.7337   -1.0447   -1.5906 CT        1 <0>       -0.10317
      6 O1         -1.0040   -0.8928    0.0623 OS        1 <0>       -0.44770
      7 O2          1.8091   -0.0379    0.8026 OH        1 <0>       -0.58962
      8 O3         -0.8176    0.7546   -1.6011 OH        1 <0>       -0.61927
      9 H1         -0.9566    1.7789    1.1066 HC        1 <0>        0.06564
     10 H2          0.1508    1.1691    2.3589 HC        1 <0>        0.06564
     11 H3         -0.6147   -1.0762    2.0685 H1        1 <0>        0.05189
     12 H4         -2.1125   -0.2067    1.6776 H1        1 <0>        0.05189
     13 H5          1.1104    1.6552   -0.1326 H1        1 <0>        0.07044
     14 H6          0.0807   -1.5907   -2.2719 HC        1 <0>        0.05728
     15 H7          1.2687   -1.7597   -0.9652 HC        1 <0>        0.05728
     16 H8          1.4573   -0.4756   -2.1749 HC        1 <0>        0.05728
     17 H9          2.1933    0.4870    1.5230 HO        1 <0>        0.40653
     18 H10        -1.3058    0.1743   -2.2031 HO        1 <0>        0.41892
@<TRIPOS>BOND
     1    1    2 1
     2    1    3 1
     3    2    6 1
     4    3    4 1
     5    3    7 1
     6    4    5 1
     7    4    6 1
     8    4    8 1
     9    1    9 1
    10    1   10 1
    11    2   11 1
    12    2   12 1
    13    3   13 1
    14    5   14 1
    15    5   15 1
    16    5   16 1
    17    7   17 1
    18    8   18 1
@<TRIPOS>SUBSTRUCTURE
     1 <0>         1 GROUP 0 A     ****
