@<TRIPOS>MOLECULE
AlkEthOH_r1052
   20    20     1     0     0
SMALL
USER_CHARGES

@<TRIPOS>ATOM
      1 C1         -0.8983    0.6233    0.0733 CT        1 <0>        0.10747
      2 C2         -2.0322   -0.0789    0.7799 CT        1 <0>        0.11914
      3 C3         -2.2883   -0.2976   -1.4642 CT        1 <0>        0.34538
      4 C4         -1.6071   -0.8439    2.0149 CT        1 <0>       -0.09706
      5 C5         -3.6079    0.2228   -2.0197 CT        1 <0>       -0.10716
      6 C6         -1.6293   -1.2764   -2.4279 CT        1 <0>       -0.10716
      7 O1         -1.4096    0.8186   -1.2461 OS        1 <0>       -0.44170
      8 O2         -2.5298   -0.9734   -0.2191 OS        1 <0>       -0.44109
      9 H1         -0.6342    1.5822    0.5268 H1        1 <0>        0.05727
     10 H2         -0.0001   -0.0001   -0.0001 H1        1 <0>        0.05727
     11 H3         -2.8354    0.6268    1.0241 H1        1 <0>        0.05434
     12 H4         -0.8063   -1.5478    1.7722 HC        1 <0>        0.04842
     13 H5         -2.4498   -1.4071    2.4251 HC        1 <0>        0.04842
     14 H6         -1.2427   -0.1572    2.7839 HC        1 <0>        0.04842
     15 H7         -4.0604    0.9201   -1.3145 HC        1 <0>        0.05134
     16 H8         -4.2952   -0.6067   -2.1868 HC        1 <0>        0.05134
     17 H9         -3.4375    0.7371   -2.9656 HC        1 <0>        0.05134
     18 H10        -0.6885   -1.6348   -2.0101 HC        1 <0>        0.05134
     19 H11        -1.4289   -0.7846   -3.3799 HC        1 <0>        0.05134
     20 H12        -2.2867   -2.1285   -2.6014 HC        1 <0>        0.05134
@<TRIPOS>BOND
     1    1    2 1
     2    1    7 1
     3    2    4 1
     4    2    8 1
     5    3    5 1
     6    3    6 1
     7    3    7 1
     8    3    8 1
     9    1    9 1
    10    1   10 1
    11    2   11 1
    12    4   12 1
    13    4   13 1
    14    4   14 1
    15    5   15 1
    16    5   16 1
    17    5   17 1
    18    6   18 1
    19    6   19 1
    20    6   20 1
@<TRIPOS>SUBSTRUCTURE
     1 <0>         1 GROUP 0 A     ****
