@<TRIPOS>MOLECULE
AlkEthOH_r914
   29    29     1     0     0
SMALL
USER_CHARGES

@<TRIPOS>ATOM
      1 C1         -2.1477   -0.4358   -1.1908 CT        1 <0>       -0.06442
      2 C2         -1.6725   -1.2236    0.0313 CT        1 <0>       -0.07672
      3 C3         -1.2944    0.7501   -1.6409 CT        1 <0>       -0.11534
      4 C4         -0.3055   -1.9056   -0.1155 CT        1 <0>       -0.08699
      5 C5         -1.1429    1.8550   -0.5961 CT        1 <0>        0.14174
      6 C6          0.8422   -1.1597    0.5843 CT        1 <0>        0.14842
      7 C7          0.9941    1.2448    0.2948 CT        1 <0>        0.33256
      8 C8          2.0519   -2.0799    0.7330 CT        1 <0>       -0.10602
      9 C9          1.7929    1.5309    1.5628 CT        1 <0>       -0.11833
     10 O1         -0.3894    1.4834    0.5549 OS        1 <0>       -0.44757
     11 O2          1.2715   -0.0599   -0.2177 OS        1 <0>       -0.44983
     12 H1         -2.2413   -1.1283   -2.0373 HC        1 <0>        0.03243
     13 H2         -3.1640   -0.0744   -0.9870 HC        1 <0>        0.03243
     14 H3         -1.7171   -0.6090    0.9361 HC        1 <0>        0.04508
     15 H4         -2.4154   -2.0176    0.1896 HC        1 <0>        0.04508
     16 H5         -0.3202    0.3936   -1.9859 HC        1 <0>        0.05524
     17 H6         -1.7803    1.1895   -2.5217 HC        1 <0>        0.05524
     18 H7         -0.3935   -2.8989    0.3437 HC        1 <0>        0.04668
     19 H8         -0.0730   -2.0629   -1.1756 HC        1 <0>        0.04668
     20 H9         -0.6874    2.7432   -1.0504 H1        1 <0>        0.04245
     21 H10        -2.1348    2.1596   -0.2442 H1        1 <0>        0.04245
     22 H11         0.5234   -0.8464    1.5842 H1        1 <0>        0.05365
     23 H12         1.3456    1.9538   -0.4647 H2        1 <0>        0.06822
     24 H13         2.3900   -2.4068   -0.2490 HC        1 <0>        0.04064
     25 H14         1.7814   -2.9523    1.3256 HC        1 <0>        0.04064
     26 H15         2.8615   -1.5480    1.2301 HC        1 <0>        0.04064
     27 H16         1.4839    0.8519    2.3566 HC        1 <0>        0.05165
     28 H17         1.6207    2.5569    1.8857 HC        1 <0>        0.05165
     29 H18         2.8560    1.3924    1.3703 HC        1 <0>        0.05165
@<TRIPOS>BOND
     1    1    2 1
     2    1    3 1
     3    2    4 1
     4    3    5 1
     5    4    6 1
     6    5   10 1
     7    6    8 1
     8    6   11 1
     9    7    9 1
    10    7   10 1
    11    7   11 1
    12    1   12 1
    13    1   13 1
    14    2   14 1
    15    2   15 1
    16    3   16 1
    17    3   17 1
    18    4   18 1
    19    4   19 1
    20    5   20 1
    21    5   21 1
    22    6   22 1
    23    7   23 1
    24    8   24 1
    25    8   25 1
    26    8   26 1
    27    9   27 1
    28    9   28 1
    29    9   29 1
@<TRIPOS>SUBSTRUCTURE
     1 <0>         1 GROUP 0 A     ****
