@<TRIPOS>MOLECULE
AlkEthOH_r639
   29    29     1     0     0
SMALL
USER_CHARGES

@<TRIPOS>ATOM
      1 C1          0.0068    1.7057    2.2784 CT        1 <0>       -0.10729
      2 C2          0.3516    0.2548    2.6307 CT        1 <0>        0.14262
      3 C3         -0.2949    1.9483    0.8016 CT        1 <0>        0.14975
      4 C4          0.3936   -1.3587    0.8729 CT        1 <0>        0.08214
      5 C5         -0.3523   -1.4722   -0.4666 CT        1 <0>        0.35815
      6 C6          0.3225    0.7800   -1.2222 CT        1 <0>        0.53655
      7 C7         -1.6789   -2.2126   -0.2760 CT        1 <0>       -0.10891
      8 C8         -0.2778    1.8583   -2.1383 CT        1 <0>       -0.11501
      9 O1         -0.3976   -0.6565    1.8315 OS        1 <0>       -0.41359
     10 O2          0.7483    1.3957    0.0043 OS        1 <0>       -0.49394
     11 O3         -0.7070   -0.2117   -1.0537 OS        1 <0>       -0.42034
     12 O4          0.4159   -2.2710   -1.3704 OH        1 <0>       -0.59043
     13 O5          1.4697    0.2399   -1.8923 OH        1 <0>       -0.57620
     14 H1         -0.8719    2.0168    2.8565 HC        1 <0>        0.05092
     15 H2          0.8370    2.3438    2.6038 HC        1 <0>        0.05092
     16 H3          1.4317    0.0841    2.5488 H1        1 <0>        0.04363
     17 H4          0.0891    0.0719    3.6786 H1        1 <0>        0.04363
     18 H5         -1.2718    1.5138    0.5613 H1        1 <0>        0.04413
     19 H6         -0.3517    3.0242    0.6051 H1        1 <0>        0.04413
     20 H7          0.6021   -2.3574    1.2762 H1        1 <0>        0.05456
     21 H8          1.3730   -0.8924    0.7195 H1        1 <0>        0.05456
     22 H9         -2.1947   -2.2852   -1.2299 HC        1 <0>        0.05515
     23 H10        -2.3004   -1.6683    0.4301 HC        1 <0>        0.05515
     24 H11        -1.4858   -3.2110    0.1073 HC        1 <0>        0.05515
     25 H12        -0.6033    1.4028   -3.0695 HC        1 <0>        0.06054
     26 H13         0.4735    2.6145   -2.3488 HC        1 <0>        0.06054
     27 H14        -1.1284    2.3207   -1.6449 HC        1 <0>        0.06054
     28 H15         0.5123   -3.1378   -0.9501 HO        1 <0>        0.40192
     29 H16         2.0779    0.9810   -2.0275 HO        1 <0>        0.42103
@<TRIPOS>BOND
     1    1    2 1
     2    1    3 1
     3    2    9 1
     4    3   10 1
     5    4    5 1
     6    4    9 1
     7    5    7 1
     8    5   11 1
     9    5   12 1
    10    6    8 1
    11    6   10 1
    12    6   11 1
    13    6   13 1
    14    1   14 1
    15    1   15 1
    16    2   16 1
    17    2   17 1
    18    3   18 1
    19    3   19 1
    20    4   20 1
    21    4   21 1
    22    7   22 1
    23    7   23 1
    24    7   24 1
    25    8   25 1
    26    8   26 1
    27    8   27 1
    28   12   28 1
    29   13   29 1
@<TRIPOS>SUBSTRUCTURE
     1 <0>         1 GROUP 0 A     ****
