@<TRIPOS>MOLECULE
AlkEthOH_r708
   26    26     1     0     0
SMALL
USER_CHARGES

@<TRIPOS>ATOM
      1 C1         -1.0437    0.5172   -2.1583 CT        1 <0>       -0.11227
      2 C2         -0.8172   -1.0000   -2.1900 CT        1 <0>       -0.09301
      3 C3         -1.9311    1.0003   -1.0115 CT        1 <0>        0.15001
      4 C4          0.4125   -1.4592   -1.4105 CT        1 <0>        0.14699
      5 C5         -0.2472    1.4594    0.6372 CT        1 <0>        0.54446
      6 C6          1.0683   -0.6061    0.7347 CT        1 <0>        0.55249
      7 C7          0.7313   -0.8294    2.2155 CT        1 <0>       -0.10607
      8 O1         -1.4201    0.7227    0.2852 OS        1 <0>       -0.46693
      9 O2          0.1601   -1.4355   -0.0090 OS        1 <0>       -0.42559
     10 O3          0.9859    0.7799    0.3696 OS        1 <0>       -0.52324
     11 O4         -0.3220    1.8993    1.9953 OH        1 <0>       -0.62492
     12 O5          2.4231   -1.0485    0.5417 OH        1 <0>       -0.61737
     13 H1         -0.0810    1.0399   -2.1489 HC        1 <0>        0.05128
     14 H2         -1.5424    0.8032   -3.0931 HC        1 <0>        0.05128
     15 H3         -1.7127   -1.5222   -1.8339 HC        1 <0>        0.05189
     16 H4         -0.6665   -1.2900   -3.2373 HC        1 <0>        0.05189
     17 H5         -2.1226    2.0759   -1.1056 H1        1 <0>        0.04998
     18 H6         -2.9064    0.5056   -1.0805 H1        1 <0>        0.04998
     19 H7          0.6268   -2.5012   -1.6718 H1        1 <0>        0.05310
     20 H8          1.2861   -0.8663   -1.7017 H1        1 <0>        0.05310
     21 H9         -0.2062    2.3770    0.0376 H3        1 <0>        0.10667
     22 H10         1.3893   -0.2245    2.8348 HC        1 <0>        0.06294
     23 H11         0.8655   -1.8789    2.4661 HC        1 <0>        0.06294
     24 H12        -0.3013   -0.5439    2.4019 HC        1 <0>        0.06294
     25 H13        -1.1082    2.4616    2.0561 HO        1 <0>        0.43504
     26 H14         2.9673   -0.5047    1.1278 HO        1 <0>        0.43242
@<TRIPOS>BOND
     1    1    2 1
     2    1    3 1
     3    2    4 1
     4    3    8 1
     5    4    9 1
     6    5    8 1
     7    5   10 1
     8    5   11 1
     9    6    7 1
    10    6    9 1
    11    6   10 1
    12    6   12 1
    13    1   13 1
    14    1   14 1
    15    2   15 1
    16    2   16 1
    17    3   17 1
    18    3   18 1
    19    4   19 1
    20    4   20 1
    21    5   21 1
    22    7   22 1
    23    7   23 1
    24    7   24 1
    25   11   25 1
    26   12   26 1
@<TRIPOS>SUBSTRUCTURE
     1 <0>         1 GROUP 0 A     ****
