@<TRIPOS>MOLECULE
AlkEthOH_r39
   23    23     1     0     0
SMALL
USER_CHARGES

@<TRIPOS>ATOM
      1 C1          1.0180   -0.3937   -0.1155 CT        1 <0>       -0.07261
      2 C2          1.0161   -1.8283    0.4003 CT        1 <0>       -0.07261
      3 C3          1.9877    0.5450    0.5913 CT        1 <0>       -0.11025
      4 C4          2.3647   -2.4501    0.7472 CT        1 <0>       -0.11025
      5 C5          4.1911   -0.7513    0.2476 CT        1 <0>       -0.14362
      6 C6          3.3895    0.5205   -0.0170 CT        1 <0>        0.14419
      7 C7          3.5241   -2.0631   -0.1688 CT        1 <0>        0.14419
      8 O1          4.1135    1.6238    0.5359 OH        1 <0>       -0.59577
      9 O2          4.5059   -3.0992   -0.0523 OH        1 <0>       -0.59577
     10 H1          1.2145   -0.3912   -1.1948 HC        1 <0>        0.04198
     11 H2          0.0000    0.0002   -0.0003 HC        1 <0>        0.04198
     12 H3          0.3792   -1.8852    1.2926 HC        1 <0>        0.04198
     13 H4          0.5218   -2.4547   -0.3535 HC        1 <0>        0.04198
     14 H5          1.6004    1.5688    0.4987 HC        1 <0>        0.04756
     15 H6          2.0240    0.3478    1.6697 HC        1 <0>        0.04756
     16 H7          2.6215   -2.2006    1.7855 HC        1 <0>        0.04756
     17 H8          2.2417   -3.5416    0.7494 HC        1 <0>        0.04756
     18 H9          5.1580   -0.6611   -0.2676 HC        1 <0>        0.05354
     19 H10         4.4733   -0.7986    1.3090 HC        1 <0>        0.05354
     20 H11         3.3212    0.6942   -1.0975 H1        1 <0>        0.07883
     21 H12         3.2064   -2.0359   -1.2168 H1        1 <0>        0.07883
     22 H13         4.1308    1.4834    1.4937 HO        1 <0>        0.39480
     23 H14         4.7654   -3.1206    0.8798 HO        1 <0>        0.39480
@<TRIPOS>BOND
     1    1    2 1
     2    1    3 1
     3    2    4 1
     4    3    6 1
     5    4    7 1
     6    5    6 1
     7    5    7 1
     8    6    8 1
     9    7    9 1
    10    1   10 1
    11    1   11 1
    12    2   12 1
    13    2   13 1
    14    3   14 1
    15    3   15 1
    16    4   16 1
    17    4   17 1
    18    5   18 1
    19    5   19 1
    20    6   20 1
    21    7   21 1
    22    8   22 1
    23    9   23 1
@<TRIPOS>SUBSTRUCTURE
     1 <0>         1 GROUP 0 A     ****
