@<TRIPOS>MOLECULE
AlkEthOH_r265
   18    18     1     0     0
SMALL
USER_CHARGES

@<TRIPOS>ATOM
      1 C1         -0.0917   -0.7734    0.8907 CT        1 <0>       -0.09886
      2 C2          1.0810    0.6589   -0.5717 CT        1 <0>        0.10438
      3 C3         -0.0479   -1.3906   -0.4996 CT        1 <0>        0.33622
      4 C4          0.1092    0.7017    0.5952 CT        1 <0>        0.12201
      5 C5          0.6160    1.5112    1.7771 CT        1 <0>       -0.11377
      6 O1          0.8127   -0.5589   -1.2894 OS        1 <0>       -0.45812
      7 O2         -1.3622   -1.4229   -1.0440 OH        1 <0>       -0.60903
      8 O3         -1.1172    1.2741    0.1417 OH        1 <0>       -0.57951
      9 H1         -1.0307   -0.9853    1.4116 HC        1 <0>        0.08064
     10 H2          0.7481   -1.1554    1.4836 HC        1 <0>        0.08064
     11 H3          0.9657    1.4993   -1.2627 H1        1 <0>        0.05446
     12 H4          2.1234    0.6102   -0.2390 H1        1 <0>        0.05446
     13 H5          0.3454   -2.4118   -0.4729 H2        1 <0>        0.06022
     14 H6          0.7365    2.5579    1.4928 HC        1 <0>        0.04770
     15 H7          1.5805    1.1255    2.1118 HC        1 <0>        0.04770
     16 H8         -0.0921    1.4521    2.6055 HC        1 <0>        0.04770
     17 H9         -1.2887   -1.8215   -1.9256 HO        1 <0>        0.42363
     18 H10        -0.9353    2.2101   -0.0317 HO        1 <0>        0.39953
@<TRIPOS>BOND
     1    1    3 1
     2    1    4 1
     3    2    4 1
     4    2    6 1
     5    3    6 1
     6    3    7 1
     7    4    5 1
     8    4    8 1
     9    1    9 1
    10    1   10 1
    11    2   11 1
    12    2   12 1
    13    3   13 1
    14    5   14 1
    15    5   15 1
    16    5   16 1
    17    7   17 1
    18    8   18 1
@<TRIPOS>SUBSTRUCTURE
     1 <0>         1 GROUP 0 A     ****
