@<TRIPOS>MOLECULE
AlkEthOH_r968
   22    22     1     0     0
SMALL
USER_CHARGES

@<TRIPOS>ATOM
      1 C1          0.5218    0.5070   -0.8183 CT        1 <0>       -0.11196
      2 C2         -0.4814    1.1523   -1.7672 CT        1 <0>       -0.07548
      3 C3          1.4107   -0.4726   -1.5676 CT        1 <0>        0.12866
      4 C4          0.2275    1.7441   -2.9953 CT        1 <0>       -0.09473
      5 C5          1.1459    0.6807   -3.6325 CT        1 <0>        0.14230
      6 C6         -0.8038    2.3023   -3.9751 CT        1 <0>       -0.08888
      7 C7          1.9877    1.2338   -4.7779 CT        1 <0>       -0.09050
      8 O1          2.0667    0.1778   -2.6536 OS        1 <0>       -0.41785
      9 H1          1.1450    1.2947   -0.3774 HC        1 <0>        0.04994
     10 H2          0.0000   -0.0000    0.0001 HC        1 <0>        0.04994
     11 H3         -1.2121    0.3981   -2.0863 HC        1 <0>        0.04186
     12 H4         -1.0388    1.9333   -1.2367 HC        1 <0>        0.04186
     13 H5          2.1825   -0.8633   -0.8969 H1        1 <0>        0.04490
     14 H6          0.8370   -1.3272   -1.9449 H1        1 <0>        0.04490
     15 H7          0.8520    2.5755   -2.6400 HC        1 <0>        0.06051
     16 H8          0.5525   -0.1604   -4.0143 H1        1 <0>        0.03375
     17 H9         -1.4365    1.4964   -4.3425 HC        1 <0>        0.03555
     18 H10        -0.2964    2.7703   -4.8167 HC        1 <0>        0.03555
     19 H11        -1.4239    3.0436   -3.4742 HC        1 <0>        0.03555
     20 H12         2.5883    2.0719   -4.4261 HC        1 <0>        0.04471
     21 H13         1.3391    1.5754   -5.5838 HC        1 <0>        0.04471
     22 H14         2.6503    0.4578   -5.1599 HC        1 <0>        0.04471
@<TRIPOS>BOND
     1    1    2 1
     2    1    3 1
     3    2    4 1
     4    3    8 1
     5    4    5 1
     6    4    6 1
     7    5    7 1
     8    5    8 1
     9    1    9 1
    10    1   10 1
    11    2   11 1
    12    2   12 1
    13    3   13 1
    14    3   14 1
    15    4   15 1
    16    5   16 1
    17    6   17 1
    18    6   18 1
    19    6   19 1
    20    7   20 1
    21    7   21 1
    22    7   22 1
@<TRIPOS>SUBSTRUCTURE
     1 <0>         1 GROUP 0 A     ****
