@<TRIPOS>MOLECULE
AlkEthOH_r517
   24    24     1     0     0
SMALL
USER_CHARGES

@<TRIPOS>ATOM
      1 C1         -1.0338    0.4850   -1.3143 CT        1 <0>       -0.13858
      2 C2         -1.2750   -0.9740   -0.9575 CT        1 <0>        0.14094
      3 C3         -0.2719    1.2210   -0.1998 CT        1 <0>        0.16834
      4 C4          0.6330   -0.9347    0.4442 CT        1 <0>        0.52550
      5 C5         -1.1701    1.5339    1.0048 CT        1 <0>       -0.10153
      6 C6          0.2742    2.5480   -0.7453 CT        1 <0>       -0.10153
      7 C7          2.0228   -1.5753    0.5127 CT        1 <0>       -0.09015
      8 O1         -0.0348   -1.5965   -0.6387 OS        1 <0>       -0.46805
      9 O2          0.8757    0.4589    0.1992 OS        1 <0>       -0.41878
     10 O3         -0.0200   -1.1664    1.6947 OH        1 <0>       -0.63696
     11 H1         -0.4194    0.4960   -2.2247 HC        1 <0>        0.05957
     12 H2         -1.9793    0.9859   -1.5503 HC        1 <0>        0.05957
     13 H3         -1.9833   -1.0878   -0.1311 H1        1 <0>        0.05525
     14 H4         -1.6996   -1.5004   -1.8185 H1        1 <0>        0.05525
     15 H5         -0.5908    2.0522    1.7640 HC        1 <0>        0.04740
     16 H6         -1.5597    0.6071    1.4169 HC        1 <0>        0.04740
     17 H7         -1.9962    2.1642    0.6869 HC        1 <0>        0.04740
     18 H8          0.8119    3.0666    0.0425 HC        1 <0>        0.04740
     19 H9         -0.5521    3.1631   -1.0879 HC        1 <0>        0.04740
     20 H10         0.9465    2.3469   -1.5736 HC        1 <0>        0.04740
     21 H11         2.5955   -1.1214    1.3183 HC        1 <0>        0.06215
     22 H12         2.5436   -1.4208   -0.4296 HC        1 <0>        0.06215
     23 H13         1.9249   -2.6425    0.6984 HC        1 <0>        0.06215
     24 H14        -0.0743   -2.1282    1.8024 HO        1 <0>        0.42031
@<TRIPOS>BOND
     1    1    2 1
     2    1    3 1
     3    2    8 1
     4    3    5 1
     5    3    6 1
     6    3    9 1
     7    4    7 1
     8    4    8 1
     9    4    9 1
    10    4   10 1
    11    1   11 1
    12    1   12 1
    13    2   13 1
    14    2   14 1
    15    5   15 1
    16    5   16 1
    17    5   17 1
    18    6   18 1
    19    6   19 1
    20    6   20 1
    21    7   21 1
    22    7   22 1
    23    7   23 1
    24   10   24 1
@<TRIPOS>SUBSTRUCTURE
     1 <0>         1 GROUP 0 A     ****
