@<TRIPOS>MOLECULE
AlkEthOH_r1065
   23    23     1     0     0
SMALL
USER_CHARGES

@<TRIPOS>ATOM
      1 C1          0.7288   -0.3389    0.7475 CT        1 <0>       -0.14074
      2 C2         -0.0357   -0.8334    1.9705 CT        1 <0>        0.12994
      3 C3         -0.0012   -3.0806    1.2307 CT        1 <0>        0.12850
      4 C4          0.7725   -2.7407   -0.0526 CT        1 <0>       -0.08139
      5 C5          1.6039   -1.4436    0.1281 CT        1 <0>        0.15468
      6 C6          1.6066   -3.9506   -0.4804 CT        1 <0>       -0.08605
      7 C7          2.1869   -0.9471   -1.1992 CT        1 <0>       -0.12283
      8 O1         -0.8121   -1.9828    1.6455 OS        1 <0>       -0.41448
      9 O2          2.7214   -1.6817    0.9896 OH        1 <0>       -0.59585
     10 H1          0.0011    0.0004   -0.0008 HC        1 <0>        0.05353
     11 H2          1.3408    0.5234    1.0373 HC        1 <0>        0.05353
     12 H3          0.6401   -1.0696    2.8007 H1        1 <0>        0.05034
     13 H4         -0.7216   -0.0544    2.3186 H1        1 <0>        0.05034
     14 H5         -0.6715   -3.9284    1.0523 H1        1 <0>        0.05497
     15 H6          0.6718   -3.3648    2.0489 H1        1 <0>        0.05497
     16 H7          0.0337   -2.5449   -0.8365 HC        1 <0>        0.05872
     17 H8          2.3515   -4.1695    0.2815 HC        1 <0>        0.04067
     18 H9          2.1080   -3.7353   -1.4213 HC        1 <0>        0.04067
     19 H10         0.9588   -4.8150   -0.6081 HC        1 <0>        0.04067
     20 H11         2.8057   -1.7252   -1.6394 HC        1 <0>        0.04383
     21 H12         2.7929   -0.0619   -1.0226 HC        1 <0>        0.04383
     22 H13         1.3784   -0.6999   -1.8827 HC        1 <0>        0.04383
     23 H14         3.1996   -0.8425    1.0479 HO        1 <0>        0.39832
@<TRIPOS>BOND
     1    1    2 1
     2    1    5 1
     3    2    8 1
     4    3    4 1
     5    3    8 1
     6    4    5 1
     7    4    6 1
     8    5    7 1
     9    5    9 1
    10    1   10 1
    11    1   11 1
    12    2   12 1
    13    2   13 1
    14    3   14 1
    15    3   15 1
    16    4   16 1
    17    6   17 1
    18    6   18 1
    19    6   19 1
    20    7   20 1
    21    7   21 1
    22    7   22 1
    23    9   23 1
@<TRIPOS>SUBSTRUCTURE
     1 <0>         1 GROUP 0 A     ****
