@<TRIPOS>MOLECULE
AlkEthOH_r958
   26    26     1     0     0
SMALL
USER_CHARGES

@<TRIPOS>ATOM
      1 C1          1.2701   -1.1231   -1.2881 CT        1 <0>       -0.11019
      2 C2         -0.1673   -1.6363   -1.2520 CT        1 <0>       -0.07178
      3 C3         -0.9556    0.5901   -0.2299 CT        1 <0>       -0.12503
      4 C4          1.7930   -0.6154    0.0443 CT        1 <0>        0.13723
      5 C5         -1.1308   -0.9388   -0.2803 CT        1 <0>       -0.06622
      6 C6          0.1816    1.0784    0.6929 CT        1 <0>        0.34442
      7 C7         -2.5724   -1.2940   -0.6678 CT        1 <0>       -0.09135
      8 C8          0.1281    2.6101    0.7667 CT        1 <0>       -0.11204
      9 O1          1.4848    0.7635    0.2041 OS        1 <0>       -0.40953
     10 O2         -0.0316    0.5655    2.0101 OH        1 <0>       -0.61886
     11 H1          1.9085   -1.9422   -1.6409 HC        1 <0>        0.04987
     12 H2          1.3407   -0.3234   -2.0361 HC        1 <0>        0.04987
     13 H3         -0.5628   -1.5899   -2.2754 HC        1 <0>        0.03762
     14 H4         -0.1477   -2.7042   -0.9953 HC        1 <0>        0.03762
     15 H5         -0.8091    0.9742   -1.2474 HC        1 <0>        0.05384
     16 H6         -1.8931    1.0221    0.1462 HC        1 <0>        0.05384
     17 H7          1.4590   -1.2137    0.8987 H1        1 <0>        0.05736
     18 H8          2.8869   -0.6748    0.0262 H1        1 <0>        0.05736
     19 H9         -0.9685   -1.3544    0.7218 HC        1 <0>        0.06001
     20 H10        -2.7876   -0.9036   -1.6585 HC        1 <0>        0.03460
     21 H11        -3.2588   -0.8557    0.0511 HC        1 <0>        0.03460
     22 H12        -2.6908   -2.3739   -0.6703 HC        1 <0>        0.03460
     23 H13         0.9236    2.9694    1.4135 HC        1 <0>        0.05155
     24 H14        -0.8327    2.9197    1.1681 HC        1 <0>        0.05155
     25 H15         0.2556    3.0251   -0.2292 HC        1 <0>        0.05155
     26 H16        -0.8896    0.9088    2.3000 HO        1 <0>        0.40751
@<TRIPOS>BOND
     1    1    2 1
     2    1    4 1
     3    2    5 1
     4    3    5 1
     5    3    6 1
     6    4    9 1
     7    5    7 1
     8    6    8 1
     9    6    9 1
    10    6   10 1
    11    1   11 1
    12    1   12 1
    13    2   13 1
    14    2   14 1
    15    3   15 1
    16    3   16 1
    17    4   17 1
    18    4   18 1
    19    5   19 1
    20    7   20 1
    21    7   21 1
    22    7   22 1
    23    8   23 1
    24    8   24 1
    25    8   25 1
    26   10   26 1
@<TRIPOS>SUBSTRUCTURE
     1 <0>         1 GROUP 0 A     ****
