@<TRIPOS>MOLECULE
AlkEthOH_r325
   22    22     1     0     0
SMALL
USER_CHARGES

@<TRIPOS>ATOM
      1 C1          0.0756    1.8639   -0.6073 CT        1 <0>       -0.07496
      2 C2          0.7419    1.3769    0.6794 CT        1 <0>       -0.11850
      3 C3         -0.8812    0.7531   -1.0421 CT        1 <0>       -0.07979
      4 C4          0.0850    0.0375    1.0054 CT        1 <0>        0.13981
      5 C5         -0.3561   -0.5202   -0.3605 CT        1 <0>       -0.04831
      6 C6          0.8083   -1.1348   -1.1581 CT        1 <0>       -0.07937
      7 C7         -1.4612   -1.5709   -0.2130 CT        1 <0>       -0.07937
      8 O1          0.9878   -0.8054    1.6961 OH        1 <0>       -0.59030
      9 H1         -0.4596    2.8067   -0.4537 HC        1 <0>        0.04282
     10 H2          0.8354    2.0414   -1.3768 HC        1 <0>        0.04282
     11 H3          1.8242    1.2712    0.5387 HC        1 <0>        0.04722
     12 H4          0.6034    2.0909    1.4987 HC        1 <0>        0.04722
     13 H5         -1.8911    0.9930   -0.6852 HC        1 <0>        0.04530
     14 H6         -0.9329    0.6657   -2.1325 HC        1 <0>        0.04530
     15 H7         -0.7816    0.2131    1.6549 H1        1 <0>        0.03451
     16 H8          1.1550   -2.0293   -0.6518 HC        1 <0>        0.03794
     17 H9          1.6165   -0.4142   -1.2225 HC        1 <0>        0.03794
     18 H10         0.4636   -1.3886   -2.1548 HC        1 <0>        0.03794
     19 H11        -1.0590   -2.4573    0.2714 HC        1 <0>        0.03794
     20 H12        -1.8427   -1.8389   -1.1951 HC        1 <0>        0.03794
     21 H13        -2.2704   -1.1665    0.3901 HC        1 <0>        0.03794
     22 H14         1.2367   -0.3467    2.5169 HO        1 <0>        0.39796
@<TRIPOS>BOND
     1    1    2 1
     2    1    3 1
     3    2    4 1
     4    3    5 1
     5    4    5 1
     6    4    8 1
     7    5    6 1
     8    5    7 1
     9    1    9 1
    10    1   10 1
    11    2   11 1
    12    2   12 1
    13    3   13 1
    14    3   14 1
    15    4   15 1
    16    6   16 1
    17    6   17 1
    18    6   18 1
    19    7   19 1
    20    7   20 1
    21    7   21 1
    22    8   22 1
@<TRIPOS>SUBSTRUCTURE
     1 <0>         1 GROUP 0 A     ****
