@<TRIPOS>MOLECULE
AlkEthOH_r441
   28    28     1     0     0
SMALL
USER_CHARGES

@<TRIPOS>ATOM
      1 C1          0.0243    2.1609    0.6431 CT        1 <0>       -0.05701
      2 C2         -0.3914    2.0532   -0.8270 CT        1 <0>       -0.11609
      3 C3          0.4570    0.8737    1.3671 CT        1 <0>       -0.08881
      4 C4          0.7537    1.7402   -1.7887 CT        1 <0>        0.13186
      5 C5          0.6385   -0.6521   -1.8871 CT        1 <0>        0.08778
      6 C6          0.3274   -1.4524   -0.6249 CT        1 <0>        0.32548
      7 C7         -0.5399   -0.3072    1.3581 CT        1 <0>        0.36687
      8 C8         -0.0836   -1.4099    2.3235 CT        1 <0>       -0.14906
      9 O1          1.3980    0.5006   -1.5318 OS        1 <0>       -0.42095
     10 O2         -0.7682   -0.8452    0.0556 OS        1 <0>       -0.50130
     11 O3         -0.0155   -2.7915   -0.9750 OH        1 <0>       -0.60373
     12 O4         -1.8004    0.1297    1.8872 OH        1 <0>       -0.58845
     13 H1          0.8375    2.8929    0.7291 HC        1 <0>        0.04456
     14 H2         -0.8206    2.5922    1.1955 HC        1 <0>        0.04456
     15 H3         -1.2031    1.3295   -0.9394 HC        1 <0>        0.05839
     16 H4         -0.8142    3.0214   -1.1246 HC        1 <0>        0.05839
     17 H5          1.4285    0.5551    0.9759 HC        1 <0>        0.05789
     18 H6          0.6369    1.1613    2.4125 HC        1 <0>        0.05789
     19 H7          0.4022    1.7651   -2.8271 H1        1 <0>        0.04565
     20 H8          1.5181    2.5201   -1.6988 H1        1 <0>        0.04565
     21 H9          1.2586   -1.2504   -2.5639 H1        1 <0>        0.05885
     22 H10        -0.2773   -0.3923   -2.4320 H1        1 <0>        0.05885
     23 H11         1.2312   -1.4911    0.0125 H2        1 <0>        0.08939
     24 H12        -0.7976   -2.2281    2.3009 HC        1 <0>        0.05333
     25 H13        -0.0254   -1.0071    3.3305 HC        1 <0>        0.05333
     26 H14         0.8942   -1.7732    2.0208 HC        1 <0>        0.05333
     27 H15        -0.7958   -2.7358   -1.5481 HO        1 <0>        0.41521
     28 H16        -2.3814   -0.6422    1.8585 HO        1 <0>        0.41814
@<TRIPOS>BOND
     1    1    2 1
     2    1    3 1
     3    2    4 1
     4    3    7 1
     5    4    9 1
     6    5    6 1
     7    5    9 1
     8    6   10 1
     9    6   11 1
    10    7    8 1
    11    7   10 1
    12    7   12 1
    13    1   13 1
    14    1   14 1
    15    2   15 1
    16    2   16 1
    17    3   17 1
    18    3   18 1
    19    4   19 1
    20    4   20 1
    21    5   21 1
    22    5   22 1
    23    6   23 1
    24    8   24 1
    25    8   25 1
    26    8   26 1
    27   11   27 1
    28   12   28 1
@<TRIPOS>SUBSTRUCTURE
     1 <0>         1 GROUP 0 A     ****
