@<TRIPOS>MOLECULE
AlkEthOH_r444
   30    30     1     0     0
SMALL
USER_CHARGES

@<TRIPOS>ATOM
      1 C1          0.5629   -1.9263   -0.8540 CT        1 <0>       -0.06627
      2 C2          1.1817   -1.0528   -1.9454 CT        1 <0>       -0.10684
      3 C3          0.7908   -1.4813    0.5972 CT        1 <0>       -0.09978
      4 C4          0.2424   -0.0084   -2.5498 CT        1 <0>        0.13626
      5 C5         -1.3021    0.5435   -0.8183 CT        1 <0>        0.11182
      6 C6          0.4906   -0.0254    1.0271 CT        1 <0>        0.17702
      7 C7         -0.9461    0.4958    0.6829 CT        1 <0>        0.15537
      8 C8          0.8018    0.0746    2.5383 CT        1 <0>       -0.12852
      9 C9         -2.0595   -0.2775    1.4088 CT        1 <0>       -0.12644
     10 O1         -0.2002    0.9670   -1.6143 OS        1 <0>       -0.38033
     11 O2          1.4676    0.8238    0.4062 OH        1 <0>       -0.55988
     12 O3         -1.0297    1.8671    1.1212 OH        1 <0>       -0.58447
     13 H1         -0.4998   -2.1042   -1.0428 HC        1 <0>        0.03456
     14 H2          1.0226   -2.9214   -0.9387 HC        1 <0>        0.03456
     15 H3          2.0941   -0.5745   -1.5738 HC        1 <0>        0.05118
     16 H4          1.4962   -1.7103   -2.7663 HC        1 <0>        0.05118
     17 H5          0.2246   -2.1695    1.2385 HC        1 <0>        0.04117
     18 H6          1.8515   -1.6789    0.8110 HC        1 <0>        0.04117
     19 H7          0.7946    0.5341   -3.3254 H1        1 <0>        0.04068
     20 H8         -0.6109   -0.4793   -3.0528 H1        1 <0>        0.04068
     21 H9         -1.7154   -0.4075   -1.1686 H1        1 <0>        0.03928
     22 H10        -2.0931    1.2868   -0.9807 H1        1 <0>        0.03928
     23 H11         0.6012    1.0849    2.8711 HC        1 <0>        0.04715
     24 H12         1.8444   -0.1687    2.6980 HC        1 <0>        0.04715
     25 H13         0.1712   -0.6245    3.0727 HC        1 <0>        0.04715
     26 H14        -1.8311   -0.3246    2.4687 HC        1 <0>        0.04389
     27 H15        -2.1208   -1.2825    1.0039 HC        1 <0>        0.04389
     28 H16        -3.0056    0.2335    1.2618 HC        1 <0>        0.04389
     29 H17         2.3269    0.5208    0.7296 HO        1 <0>        0.38699
     30 H18        -1.9399    2.1388    0.9507 HO        1 <0>        0.39821
@<TRIPOS>BOND
     1    1    2 1
     2    1    3 1
     3    2    4 1
     4    3    6 1
     5    4   10 1
     6    5    7 1
     7    5   10 1
     8    6    7 1
     9    6    8 1
    10    6   11 1
    11    7    9 1
    12    7   12 1
    13    1   13 1
    14    1   14 1
    15    2   15 1
    16    2   16 1
    17    3   17 1
    18    3   18 1
    19    4   19 1
    20    4   20 1
    21    5   21 1
    22    5   22 1
    23    8   23 1
    24    8   24 1
    25    8   25 1
    26    9   26 1
    27    9   27 1
    28    9   28 1
    29   11   29 1
    30   12   30 1
@<TRIPOS>SUBSTRUCTURE
     1 <0>         1 GROUP 0 A     ****
