@<TRIPOS>MOLECULE
AlkEthOH_r404
   26    26     1     0     0
SMALL
USER_CHARGES

@<TRIPOS>ATOM
      1 C1          0.8318    0.4440   -2.1271 CT        1 <0>       -0.06621
      2 C2         -0.5816    0.0824   -1.6564 CT        1 <0>       -0.08063
      3 C3          1.9164    0.5560   -1.0554 CT        1 <0>       -0.10990
      4 C4         -1.0851    0.8865   -0.4496 CT        1 <0>       -0.09457
      5 C5          2.1232   -0.7058   -0.2227 CT        1 <0>        0.12890
      6 C6          0.3706   -0.2877    1.3557 CT        1 <0>        0.14199
      7 C7         -1.0323    0.1594    0.9145 CT        1 <0>        0.12990
      8 C8         -1.6333    1.0636    1.9991 CT        1 <0>       -0.12756
      9 O1          0.9384   -1.1816    0.4020 OS        1 <0>       -0.39855
     10 O2         -1.8482   -1.0168    0.8399 OH        1 <0>       -0.58155
     11 H1          1.1439   -0.2913   -2.8794 HC        1 <0>        0.03593
     12 H2          0.7821    1.4076   -2.6508 HC        1 <0>        0.03593
     13 H3         -1.2542    0.2817   -2.5017 HC        1 <0>        0.05579
     14 H4         -0.6606   -0.9958   -1.4808 HC        1 <0>        0.05579
     15 H5          2.8655    0.8045   -1.5463 HC        1 <0>        0.04207
     16 H6          1.6899    1.4062   -0.4035 HC        1 <0>        0.04207
     17 H7         -0.5748    1.8551   -0.3910 HC        1 <0>        0.04016
     18 H8         -2.1411    1.1145   -0.6538 HC        1 <0>        0.04016
     19 H9          2.4867   -1.5104   -0.8711 H1        1 <0>        0.04429
     20 H10         2.8925   -0.5390    0.5403 H1        1 <0>        0.04429
     21 H11         1.0218    0.5707    1.5576 H1        1 <0>        0.05027
     22 H12         0.2958   -0.8570    2.2899 H1        1 <0>        0.05027
     23 H13        -1.5962    0.5529    2.9571 HC        1 <0>        0.04229
     24 H14        -2.6657    1.2908    1.7493 HC        1 <0>        0.04229
     25 H15        -1.0628    1.9862    2.0577 HC        1 <0>        0.04229
     26 H16        -2.7428   -0.7100    0.6363 HO        1 <0>        0.39429
@<TRIPOS>BOND
     1    1    2 1
     2    1    3 1
     3    2    4 1
     4    3    5 1
     5    4    7 1
     6    5    9 1
     7    6    7 1
     8    6    9 1
     9    7    8 1
    10    7   10 1
    11    1   11 1
    12    1   12 1
    13    2   13 1
    14    2   14 1
    15    3   15 1
    16    3   16 1
    17    4   17 1
    18    4   18 1
    19    5   19 1
    20    5   20 1
    21    6   21 1
    22    6   22 1
    23    8   23 1
    24    8   24 1
    25    8   25 1
    26   10   26 1
@<TRIPOS>SUBSTRUCTURE
     1 <0>         1 GROUP 0 A     ****
