@<TRIPOS>MOLECULE
AlkEthOH_r498
   27    27     1     0     0
SMALL
USER_CHARGES

@<TRIPOS>ATOM
      1 C1          0.7958    1.6717   -0.4199 CT        1 <0>       -0.10516
      2 C2         -0.6429    1.4323    0.0684 CT        1 <0>       -0.12403
      3 C3          1.0081   -2.0844    0.7191 CT        1 <0>       -0.10137
      4 C4          1.8642    1.4011    0.6473 CT        1 <0>        0.13409
      5 C5          2.0365   -0.9793    0.4792 CT        1 <0>        0.13111
      6 C6         -0.4314   -1.5824    0.6046 CT        1 <0>        0.14905
      7 C7         -1.3855    0.2634   -0.6263 CT        1 <0>        0.35224
      8 C8         -1.6767    0.6067   -2.0909 CT        1 <0>       -0.11564
      9 O1          1.7070    0.1421    1.2928 OS        1 <0>       -0.42491
     10 O2         -0.6077   -0.9393   -0.6541 OS        1 <0>       -0.41930
     11 O3         -2.6675    0.0682   -0.0203 OH        1 <0>       -0.62366
     12 H1          1.0085    1.0687   -1.3077 HC        1 <0>        0.04996
     13 H2          0.8952    2.7172   -0.7369 HC        1 <0>        0.04996
     14 H3         -0.6547    1.2892    1.1560 HC        1 <0>        0.05588
     15 H4         -1.2271    2.3502   -0.0855 HC        1 <0>        0.05588
     16 H5          1.1846   -2.8868   -0.0064 HC        1 <0>        0.05267
     17 H6          1.1465   -2.5069    1.7211 HC        1 <0>        0.05267
     18 H7          2.8706    1.4787    0.2196 H1        1 <0>        0.04460
     19 H8          1.7871    2.1666    1.4273 H1        1 <0>        0.04460
     20 H9          3.0349   -1.3285    0.7634 H1        1 <0>        0.03765
     21 H10         2.0704   -0.7250   -0.5855 H1        1 <0>        0.03765
     22 H11        -1.1232   -2.4301    0.6523 H1        1 <0>        0.05102
     23 H12        -0.6652   -0.9233    1.4472 H1        1 <0>        0.05102
     24 H13        -2.1970   -0.2232   -2.5613 HC        1 <0>        0.05165
     25 H14        -0.7417    0.7901   -2.6131 HC        1 <0>        0.05165
     26 H15        -2.2982    1.4968   -2.1380 HC        1 <0>        0.05165
     27 H16        -3.1491    0.8996   -0.1358 HO        1 <0>        0.40907
@<TRIPOS>BOND
     1    1    2 1
     2    1    4 1
     3    2    7 1
     4    3    5 1
     5    3    6 1
     6    4    9 1
     7    5    9 1
     8    6   10 1
     9    7    8 1
    10    7   10 1
    11    7   11 1
    12    1   12 1
    13    1   13 1
    14    2   14 1
    15    2   15 1
    16    3   16 1
    17    3   17 1
    18    4   18 1
    19    4   19 1
    20    5   20 1
    21    5   21 1
    22    6   22 1
    23    6   23 1
    24    8   24 1
    25    8   25 1
    26    8   26 1
    27   11   27 1
@<TRIPOS>SUBSTRUCTURE
     1 <0>         1 GROUP 0 A     ****
