@<TRIPOS>MOLECULE
AlkEthOH_r577
   30    30     1     0     0
SMALL
USER_CHARGES

@<TRIPOS>ATOM
      1 C1          0.8654   -1.1062   -1.0791 CT        1 <0>       -0.12816
      2 C2          1.0833   -1.9866    0.1576 CT        1 <0>        0.14635
      3 C3         -0.8998   -1.4634    1.3731 CT        1 <0>        0.33060
      4 C4          1.0572    0.4118   -0.8587 CT        1 <0>        0.18237
      5 C5         -1.1583    0.7065    0.3105 CT        1 <0>        0.36082
      6 C6          2.5012    0.6871   -0.3913 CT        1 <0>       -0.10582
      7 C7          0.8698    1.1671   -2.1833 CT        1 <0>       -0.10582
      8 C8         -1.5857    1.4175    1.6054 CT        1 <0>       -0.11041
      9 C9         -1.9713    1.3202   -0.8326 CT        1 <0>       -0.11041
     10 O1          0.5235   -1.4476    1.3501 OS        1 <0>       -0.43451
     11 O2         -1.5296   -0.6772    0.3669 OS        1 <0>       -0.47720
     12 O3          0.2444    0.9708    0.1814 OS        1 <0>       -0.43941
     13 H1          1.5399   -1.4574   -1.8712 HC        1 <0>        0.05606
     14 H2         -0.1442   -1.2898   -1.4642 HC        1 <0>        0.05606
     15 H3          0.6966   -2.9978   -0.0159 H1        1 <0>        0.04287
     16 H4          2.1589   -2.0927    0.3361 H1        1 <0>        0.04287
     17 H5         -1.2483   -2.4958    1.2576 H2        1 <0>        0.05956
     18 H6         -1.2322   -1.1351    2.3626 H2        1 <0>        0.05956
     19 H7          2.6269    1.7527   -0.2394 HC        1 <0>        0.04317
     20 H8          3.1914    0.3393   -1.1510 HC        1 <0>        0.04317
     21 H9          2.6791    0.1587    0.5380 HC        1 <0>        0.04317
     22 H10         1.0071    2.2308   -2.0139 HC        1 <0>        0.04317
     23 H11        -0.1312    0.9856   -2.5627 HC        1 <0>        0.04317
     24 H12         1.6015    0.8162   -2.9046 HC        1 <0>        0.04317
     25 H13        -1.0278    1.0068    2.4408 HC        1 <0>        0.05260
     26 H14        -2.6480    1.2635    1.7651 HC        1 <0>        0.05260
     27 H15        -1.3801    2.4794    1.5159 HC        1 <0>        0.05260
     28 H16        -1.6989    0.8438   -1.7715 HC        1 <0>        0.05260
     29 H17        -1.7644    2.3859   -0.8968 HC        1 <0>        0.05260
     30 H18        -3.0324    1.1702   -0.6477 HC        1 <0>        0.05260
@<TRIPOS>BOND
     1    1    2 1
     2    1    4 1
     3    2   10 1
     4    3   10 1
     5    3   11 1
     6    4    6 1
     7    4    7 1
     8    4   12 1
     9    5    8 1
    10    5    9 1
    11    5   11 1
    12    5   12 1
    13    1   13 1
    14    1   14 1
    15    2   15 1
    16    2   16 1
    17    3   17 1
    18    3   18 1
    19    6   19 1
    20    6   20 1
    21    6   21 1
    22    7   22 1
    23    7   23 1
    24    7   24 1
    25    8   25 1
    26    8   26 1
    27    8   27 1
    28    9   28 1
    29    9   29 1
    30    9   30 1
@<TRIPOS>SUBSTRUCTURE
     1 <0>         1 GROUP 0 A     ****
