@<TRIPOS>MOLECULE
AlkEthOH_r812
   22    22     1     0     0
SMALL
USER_CHARGES

@<TRIPOS>ATOM
      1 C1         -0.2133    0.2515   -1.0047 CT        1 <0>       -0.10213
      2 C2          0.7654   -1.2145    0.5437 CT        1 <0>        0.12767
      3 C3         -0.1640   -1.2226   -0.6556 CT        1 <0>       -0.09826
      4 C4         -0.1860    0.9192    0.3719 CT        1 <0>        0.14547
      5 C5          0.3114   -2.1125   -1.7888 CT        1 <0>       -0.08463
      6 C6         -1.5931    1.1217    0.9395 CT        1 <0>       -0.09677
      7 C7          0.5669    2.2464    0.3462 CT        1 <0>       -0.09677
      8 O1          0.5127    0.0106    1.2478 OS        1 <0>       -0.42600
      9 H1          0.6762    0.5267   -1.5861 HC        1 <0>        0.05545
     10 H2         -1.0915    0.5210   -1.6002 HC        1 <0>        0.05545
     11 H3          0.5909   -2.0611    1.2142 H1        1 <0>        0.04666
     12 H4          1.8210   -1.2168    0.2496 H1        1 <0>        0.04666
     13 H5         -1.1619   -1.5498   -0.3374 HC        1 <0>        0.05982
     14 H6          1.3049   -1.8040   -2.1218 HC        1 <0>        0.03782
     15 H7         -0.3757   -2.0480   -2.6353 HC        1 <0>        0.03782
     16 H8          0.3616   -3.1524   -1.4587 HC        1 <0>        0.03782
     17 H9         -1.5288    1.5974    1.9155 HC        1 <0>        0.04232
     18 H10        -2.0885    0.1589    1.0411 HC        1 <0>        0.04232
     19 H11        -2.1704    1.7541    0.2688 HC        1 <0>        0.04232
     20 H12         0.5660    2.6920    1.3400 HC        1 <0>        0.04232
     21 H13         0.0862    2.9313   -0.3511 HC        1 <0>        0.04232
     22 H14         1.5964    2.0820    0.0308 HC        1 <0>        0.04232
@<TRIPOS>BOND
     1    1    3 1
     2    1    4 1
     3    2    3 1
     4    2    8 1
     5    3    5 1
     6    4    6 1
     7    4    7 1
     8    4    8 1
     9    1    9 1
    10    1   10 1
    11    2   11 1
    12    2   12 1
    13    3   13 1
    14    5   14 1
    15    5   15 1
    16    5   16 1
    17    6   17 1
    18    6   18 1
    19    6   19 1
    20    7   20 1
    21    7   21 1
    22    7   22 1
@<TRIPOS>SUBSTRUCTURE
     1 <0>         1 GROUP 0 A     ****
