@<TRIPOS>MOLECULE
AlkEthOH_r939
   32    32     1     0     0
SMALL
USER_CHARGES

@<TRIPOS>ATOM
      1 C1          1.5589   -1.0333    1.5113 CT        1 <0>       -0.07362
      2 C2          2.0824    0.3963    1.3220 CT        1 <0>       -0.11012
      3 C3          1.3747   -1.8364    0.2141 CT        1 <0>       -0.06981
      4 C4         -0.9252   -0.8470   -0.4149 CT        1 <0>       -0.09851
      5 C5          1.1130    1.4640    1.8408 CT        1 <0>        0.12801
      6 C6         -0.4223    1.6448    0.0150 CT        1 <0>        0.13968
      7 C7          0.5012   -1.2008   -0.8906 CT        1 <0>       -0.05598
      8 C8         -1.3528    0.6211   -0.6597 CT        1 <0>        0.14222
      9 C9          0.4344   -2.1620   -2.0862 CT        1 <0>       -0.09344
     10 C10        -1.4906    0.9312   -2.1529 CT        1 <0>       -0.12428
     11 O1         -0.2173    1.2654    1.3747 OS        1 <0>       -0.40405
     12 O2         -2.6566    0.7568   -0.0736 OH        1 <0>       -0.58854
     13 H1          2.2859   -1.5803    2.1266 HC        1 <0>        0.04731
     14 H2          0.6319   -1.0443    2.0948 HC        1 <0>        0.04731
     15 H3          3.0280    0.5079    1.8673 HC        1 <0>        0.04222
     16 H4          2.3251    0.5873    0.2726 HC        1 <0>        0.04222
     17 H5          2.3707   -2.0348   -0.2040 HC        1 <0>        0.03674
     18 H6          0.9594   -2.8169    0.4823 HC        1 <0>        0.03674
     19 H7         -1.6611   -1.5025   -0.9024 HC        1 <0>        0.05423
     20 H8         -1.0521   -1.0786    0.6495 HC        1 <0>        0.05423
     21 H9          1.0747    1.4053    2.9341 H1        1 <0>        0.04517
     22 H10         1.4603    2.4716    1.5843 H1        1 <0>        0.04517
     23 H11         0.5246    1.7326   -0.5280 H1        1 <0>        0.04478
     24 H12        -0.8865    2.6376    0.0271 H1        1 <0>        0.04478
     25 H13         1.0141   -0.3053   -1.2528 HC        1 <0>        0.04361
     26 H14        -0.0681   -3.0768   -1.7861 HC        1 <0>        0.03364
     27 H15         1.4416   -2.3937   -2.4196 HC        1 <0>        0.03364
     28 H16        -0.1174   -1.6932   -2.8956 HC        1 <0>        0.03364
     29 H17        -1.7912    1.9680   -2.2843 HC        1 <0>        0.04294
     30 H18        -2.2421    0.2802   -2.5931 HC        1 <0>        0.04294
     31 H19        -0.5370    0.7673   -2.6493 HC        1 <0>        0.04294
     32 H20        -3.2219    0.1215   -0.5335 HO        1 <0>        0.39419
@<TRIPOS>BOND
     1    1    2 1
     2    1    3 1
     3    2    5 1
     4    3    7 1
     5    4    7 1
     6    4    8 1
     7    5   11 1
     8    6    8 1
     9    6   11 1
    10    7    9 1
    11    8   10 1
    12    8   12 1
    13    1   13 1
    14    1   14 1
    15    2   15 1
    16    2   16 1
    17    3   17 1
    18    3   18 1
    19    4   19 1
    20    4   20 1
    21    5   21 1
    22    5   22 1
    23    6   23 1
    24    6   24 1
    25    7   25 1
    26    9   26 1
    27    9   27 1
    28    9   28 1
    29   10   29 1
    30   10   30 1
    31   10   31 1
    32   12   32 1
@<TRIPOS>SUBSTRUCTURE
     1 <0>         1 GROUP 0 A     ****
