@<TRIPOS>MOLECULE
AlkEthOH_r638
   31    31     1     0     0
SMALL
USER_CHARGES

@<TRIPOS>ATOM
      1 C1          0.2112   -0.5043    2.7921 CT        1 <0>       -0.11261
      2 C2          1.6216   -0.4072    2.2011 CT        1 <0>        0.13556
      3 C3         -0.8620   -0.8042    1.7489 CT        1 <0>        0.15291
      4 C4          1.7344   -0.4796   -0.1814 CT        1 <0>        0.10762
      5 C5          0.8643    0.0549   -1.3405 CT        1 <0>        0.17385
      6 C6         -1.4538    0.1756   -0.3971 CT        1 <0>        0.54171
      7 C7          1.3893   -0.5803   -2.6425 CT        1 <0>       -0.09864
      8 C8          0.9525    1.5786   -1.4841 CT        1 <0>       -0.09864
      9 C9         -2.7007   -0.7251   -0.4601 CT        1 <0>       -0.10644
     10 O1          1.6109    0.3357    0.9854 OS        1 <0>       -0.40511
     11 O2         -1.0440    0.3687    0.9575 OS        1 <0>       -0.46958
     12 O3         -0.4777   -0.4580   -1.2371 OS        1 <0>       -0.45642
     13 O4         -1.8462    1.4453   -0.9422 OH        1 <0>       -0.61298
     14 H1          0.2051   -1.2672    3.5780 HC        1 <0>        0.05756
     15 H2         -0.0260    0.4582    3.2628 HC        1 <0>        0.05756
     16 H3          2.2648    0.1256    2.9100 H1        1 <0>        0.04040
     17 H4          2.0604   -1.4030    2.0653 H1        1 <0>        0.04040
     18 H5         -0.5734   -1.6709    1.1455 H1        1 <0>        0.03526
     19 H6         -1.8104   -1.0259    2.2492 H1        1 <0>        0.03526
     20 H7          1.4577   -1.5207    0.0252 H1        1 <0>        0.03961
     21 H8          2.7952   -0.4612   -0.4567 H1        1 <0>        0.03961
     22 H9          0.7957   -0.2223   -3.4758 HC        1 <0>        0.04864
     23 H10         1.3076   -1.6585   -2.5687 HC        1 <0>        0.04864
     24 H11         2.4266   -0.2981   -2.7812 HC        1 <0>        0.04864
     25 H12         0.3249    1.9041   -2.3101 HC        1 <0>        0.04864
     26 H13         1.9825    1.8675   -1.6789 HC        1 <0>        0.04864
     27 H14         0.6132    2.0518   -0.5658 HC        1 <0>        0.04864
     28 H15        -2.9964   -0.8599   -1.4962 HC        1 <0>        0.05883
     29 H16        -3.5113   -0.2577    0.0911 HC        1 <0>        0.05883
     30 H17        -2.4708   -1.6906   -0.0193 HC        1 <0>        0.05883
     31 H18        -2.5654    1.7679   -0.3809 HO        1 <0>        0.43478
@<TRIPOS>BOND
     1    1    2 1
     2    1    3 1
     3    2   10 1
     4    3   11 1
     5    4    5 1
     6    4   10 1
     7    5    7 1
     8    5    8 1
     9    5   12 1
    10    6    9 1
    11    6   11 1
    12    6   12 1
    13    6   13 1
    14    1   14 1
    15    1   15 1
    16    2   16 1
    17    2   17 1
    18    3   18 1
    19    3   19 1
    20    4   20 1
    21    4   21 1
    22    7   22 1
    23    7   23 1
    24    7   24 1
    25    8   25 1
    26    8   26 1
    27    8   27 1
    28    9   28 1
    29    9   29 1
    30    9   30 1
    31   13   31 1
@<TRIPOS>SUBSTRUCTURE
     1 <0>         1 GROUP 0 A     ****
