@<TRIPOS>MOLECULE
AlkEthOH_r984
   26    26     1     0     0
SMALL
USER_CHARGES

@<TRIPOS>ATOM
      1 C1         -1.3220    0.9550    1.0024 CT        1 <0>       -0.10368
      2 C2         -0.7288   -0.2850    1.6918 CT        1 <0>       -0.09126
      3 C3          1.0458    0.4250   -2.0548 CT        1 <0>       -0.10575
      4 C4         -2.0546    0.6525   -0.3100 CT        1 <0>        0.13504
      5 C5         -0.3705    0.9945   -1.9676 CT        1 <0>        0.13249
      6 C6          1.6641    0.2530   -0.6685 CT        1 <0>        0.13839
      7 C7          0.7652   -0.5234    1.4119 CT        1 <0>        0.14616
      8 C8          1.2528   -1.7579    2.1649 CT        1 <0>       -0.10325
      9 O1         -1.2135    0.0628   -1.2934 OS        1 <0>       -0.40479
     10 O2          0.9614   -0.7766    0.0232 OS        1 <0>       -0.40753
     11 H1         -2.0565    1.4032    1.6835 HC        1 <0>        0.04058
     12 H2         -0.5421    1.7077    0.8487 HC        1 <0>        0.04058
     13 H3         -0.8504   -0.1580    2.7753 HC        1 <0>        0.05032
     14 H4         -1.3107   -1.1714    1.4099 HC        1 <0>        0.05032
     15 H5          1.0072   -0.5512   -2.5525 HC        1 <0>        0.05975
     16 H6          1.6701    1.0963   -2.6540 HC        1 <0>        0.05975
     17 H7         -2.8637   -0.0595   -0.1119 H1        1 <0>        0.04262
     18 H8         -2.5232    1.5594   -0.7108 H1        1 <0>        0.04262
     19 H9         -0.3538    1.9731   -1.4735 H1        1 <0>        0.03076
     20 H10        -0.7731    1.1371   -2.9759 H1        1 <0>        0.03076
     21 H11         2.7099   -0.0583   -0.7598 H1        1 <0>        0.02748
     22 H12         1.6366    1.2099   -0.1347 H1        1 <0>        0.02748
     23 H13         1.3520    0.3374    1.7563 H1        1 <0>        0.03252
     24 H14         0.6889   -2.6333    1.8455 HC        1 <0>        0.04288
     25 H15         1.1142   -1.6170    3.2360 HC        1 <0>        0.04288
     26 H16         2.3102   -1.9221    1.9615 HC        1 <0>        0.04288
@<TRIPOS>BOND
     1    1    2 1
     2    1    4 1
     3    2    7 1
     4    3    5 1
     5    3    6 1
     6    4    9 1
     7    5    9 1
     8    6   10 1
     9    7    8 1
    10    7   10 1
    11    1   11 1
    12    1   12 1
    13    2   13 1
    14    2   14 1
    15    3   15 1
    16    3   16 1
    17    4   17 1
    18    4   18 1
    19    5   19 1
    20    5   20 1
    21    6   21 1
    22    6   22 1
    23    7   23 1
    24    8   24 1
    25    8   25 1
    26    8   26 1
@<TRIPOS>SUBSTRUCTURE
     1 <0>         1 GROUP 0 A     ****
