@<TRIPOS>MOLECULE
AlkEthOH_r1099
   20    20     1     0     0
SMALL
USER_CHARGES

@<TRIPOS>ATOM
      1 C1          0.4052    1.7117   -0.8740 CT        1 <0>        0.09650
      2 C2          1.1527    0.4756   -1.3481 CT        1 <0>        0.09650
      3 C3         -0.9393    0.5877    0.7670 CT        1 <0>        0.13294
      4 C4          0.7676   -1.2567    0.2683 CT        1 <0>        0.13294
      5 C5         -0.7191   -0.8817    0.3962 CT        1 <0>       -0.13396
      6 C6         -1.3962   -1.8120    1.4041 CT        1 <0>       -0.08765
      7 O1         -0.9025    1.4112   -0.3987 OS        1 <0>       -0.42150
      8 O2          1.6317   -0.2358   -0.2146 OS        1 <0>       -0.42150
      9 H1          0.9583    2.2388   -0.0882 H1        1 <0>        0.05662
     10 H2          0.2793    2.4002   -1.7157 H1        1 <0>        0.05662
     11 H3          0.5456   -0.1667   -1.9956 H1        1 <0>        0.05662
     12 H4          2.0344    0.7919   -1.9147 H1        1 <0>        0.05662
     13 H5         -1.9432    0.7157    1.1865 H1        1 <0>        0.04988
     14 H6         -0.2278    0.9440    1.5213 H1        1 <0>        0.04988
     15 H7          1.1668   -1.5480    1.2467 H1        1 <0>        0.04988
     16 H8          0.8730   -2.1349   -0.3804 H1        1 <0>        0.04988
     17 H9         -1.1886   -1.0551   -0.5816 HC        1 <0>        0.06441
     18 H10        -0.9562   -1.6686    2.3887 HC        1 <0>        0.03844
     19 H11        -1.2591   -2.8468    1.0975 HC        1 <0>        0.03844
     20 H12        -2.4602   -1.5898    1.4510 HC        1 <0>        0.03844
@<TRIPOS>BOND
     1    1    2 1
     2    1    7 1
     3    2    8 1
     4    3    5 1
     5    3    7 1
     6    4    5 1
     7    4    8 1
     8    5    6 1
     9    1    9 1
    10    1   10 1
    11    2   11 1
    12    2   12 1
    13    3   13 1
    14    3   14 1
    15    4   15 1
    16    4   16 1
    17    5   17 1
    18    6   18 1
    19    6   19 1
    20    6   20 1
@<TRIPOS>SUBSTRUCTURE
     1 <0>         1 GROUP 0 A     ****
