@<TRIPOS>MOLECULE
AlkEthOH_r574
   28    28     1     0     0
SMALL
USER_CHARGES

@<TRIPOS>ATOM
      1 C1          0.2123    0.0021   -1.7551 CT        1 <0>       -0.13782
      2 C2          0.3524   -0.8129    0.7324 CT        1 <0>       -0.11223
      3 C3          1.0717    1.2557   -1.5741 CT        1 <0>        0.14658
      4 C4          0.0272    2.1479    0.3877 CT        1 <0>        0.33167
      5 C5          0.4690   -1.1602   -0.7736 CT        1 <0>        0.17415
      6 C6         -0.8542    0.0368    1.2034 CT        1 <0>        0.36249
      7 C7          1.8471   -1.7847   -1.0412 CT        1 <0>       -0.12594
      8 C8         -2.1603   -0.7585    1.1099 CT        1 <0>       -0.11504
      9 O1          1.2221    1.6689   -0.2219 OS        1 <0>       -0.45000
     10 O2         -1.0570    1.2255    0.4344 OS        1 <0>       -0.44211
     11 O3         -0.5045   -2.1666   -1.0870 OH        1 <0>       -0.60792
     12 O4         -0.6257    0.3459    2.5849 OH        1 <0>       -0.63209
     13 H1         -0.8496    0.2750   -1.7197 HC        1 <0>        0.05881
     14 H2          0.3413   -0.3574   -2.7857 HC        1 <0>        0.05881
     15 H3          0.3429   -1.7478    1.3125 HC        1 <0>        0.07013
     16 H4          1.2749   -0.3162    1.0609 HC        1 <0>        0.07013
     17 H5          2.0793    1.0545   -1.9536 H1        1 <0>        0.04482
     18 H6          0.6719    2.0834   -2.1716 H1        1 <0>        0.04482
     19 H7          0.2718    2.4744    1.4039 H2        1 <0>        0.07384
     20 H8         -0.3132    3.0350   -0.1575 H2        1 <0>        0.07384
     21 H9          2.0142   -2.6002   -0.3443 HC        1 <0>        0.04384
     22 H10         2.6161   -1.0298   -0.9090 HC        1 <0>        0.04384
     23 H11         1.8794   -2.1629   -2.0584 HC        1 <0>        0.04384
     24 H12        -2.9886   -0.1396    1.4458 HC        1 <0>        0.05716
     25 H13        -2.0938   -1.6433    1.7381 HC        1 <0>        0.05716
     26 H14        -2.3303   -1.0600    0.0793 HC        1 <0>        0.05716
     27 H15        -0.3449   -2.4142   -2.0081 HO        1 <0>        0.39701
     28 H16        -0.5720   -0.5039    3.0438 HO        1 <0>        0.41305
@<TRIPOS>BOND
     1    1    3 1
     2    1    5 1
     3    2    5 1
     4    2    6 1
     5    3    9 1
     6    4    9 1
     7    4   10 1
     8    5    7 1
     9    5   11 1
    10    6    8 1
    11    6   10 1
    12    6   12 1
    13    1   13 1
    14    1   14 1
    15    2   15 1
    16    2   16 1
    17    3   17 1
    18    3   18 1
    19    4   19 1
    20    4   20 1
    21    7   21 1
    22    7   22 1
    23    7   23 1
    24    8   24 1
    25    8   25 1
    26    8   26 1
    27   11   27 1
    28   12   28 1
@<TRIPOS>SUBSTRUCTURE
     1 <0>         1 GROUP 0 A     ****
