@<TRIPOS>MOLECULE
AlkEthOH_r928
   26    26     1     0     0
SMALL
USER_CHARGES

@<TRIPOS>ATOM
      1 C1         -1.5271    0.0381   -1.4800 CT        1 <0>       -0.07087
      2 C2         -0.4170   -0.7807   -2.1488 CT        1 <0>       -0.10202
      3 C3         -1.0291    1.2717   -0.7193 CT        1 <0>       -0.07525
      4 C4         -0.3111   -0.1574    1.3480 CT        1 <0>       -0.13283
      5 C5          0.5736   -1.4300   -1.1896 CT        1 <0>        0.13619
      6 C6         -0.9840    1.1193    0.8136 CT        1 <0>       -0.05230
      7 C7          1.1382   -0.4014    0.9120 CT        1 <0>        0.34036
      8 C8         -0.3590    2.3731    1.4355 CT        1 <0>       -0.09494
      9 O1          1.3154   -0.4299   -0.5009 OS        1 <0>       -0.40620
     10 O2          1.5998   -1.6029    1.5294 OH        1 <0>       -0.62926
     11 H1         -2.1888    0.3869   -2.2839 HC        1 <0>        0.03672
     12 H2         -2.1456   -0.6024   -0.8416 HC        1 <0>        0.03672
     13 H3         -0.8829   -1.5665   -2.7553 HC        1 <0>        0.04700
     14 H4          0.1291   -0.1256   -2.8393 HC        1 <0>        0.04700
     15 H5         -0.0596    1.6031   -1.1100 HC        1 <0>        0.04820
     16 H6         -1.7216    2.0967   -0.9379 HC        1 <0>        0.04820
     17 H7         -0.3399   -0.1424    2.4466 HC        1 <0>        0.04963
     18 H8         -0.9300   -1.0226    1.0825 HC        1 <0>        0.04963
     19 H9          0.0733   -2.1350   -0.5173 H1        1 <0>        0.04956
     20 H10         1.2949   -2.0115   -1.7745 H1        1 <0>        0.04956
     21 H11        -2.0260    1.0826    1.1617 HC        1 <0>        0.04240
     22 H12         1.7629    0.4129    1.2940 H2        1 <0>        0.06849
     23 H13         0.6780    2.4568    1.1209 HC        1 <0>        0.03557
     24 H14        -0.4027    2.3018    2.5192 HC        1 <0>        0.03557
     25 H15        -0.9074    3.2529    1.1091 HC        1 <0>        0.03557
     26 H16         1.5369   -1.4609    2.4860 HO        1 <0>        0.40730
@<TRIPOS>BOND
     1    1    2 1
     2    1    3 1
     3    2    5 1
     4    3    6 1
     5    4    6 1
     6    4    7 1
     7    5    9 1
     8    6    8 1
     9    7    9 1
    10    7   10 1
    11    1   11 1
    12    1   12 1
    13    2   13 1
    14    2   14 1
    15    3   15 1
    16    3   16 1
    17    4   17 1
    18    4   18 1
    19    5   19 1
    20    5   20 1
    21    6   21 1
    22    7   22 1
    23    8   23 1
    24    8   24 1
    25    8   25 1
    26   10   26 1
@<TRIPOS>SUBSTRUCTURE
     1 <0>         1 GROUP 0 A     ****
