@<TRIPOS>MOLECULE
AlkEthOH_r641
   26    26     1     0     0
SMALL
USER_CHARGES

@<TRIPOS>ATOM
      1 C1         -0.2437   -0.3971    2.3581 CT        1 <0>       -0.15664
      2 C2          0.3218   -1.7064    1.8076 CT        1 <0>        0.14060
      3 C3          0.7020    0.7877    2.1582 CT        1 <0>        0.14971
      4 C4         -0.4901   -1.6633   -0.4473 CT        1 <0>        0.08134
      5 C5          0.0085    1.6147    0.0133 CT        1 <0>        0.53916
      6 C6         -0.5695   -0.3792   -1.2886 CT        1 <0>        0.35543
      7 C7         -1.6657   -0.5536   -2.3454 CT        1 <0>       -0.09341
      8 O1          0.6413   -1.6264    0.4224 OS        1 <0>       -0.41855
      9 O2          1.0456    1.0175    0.7932 OS        1 <0>       -0.47122
     10 O3         -0.9953    0.7135   -0.4623 OS        1 <0>       -0.50721
     11 O4          0.5675    2.3873   -1.0529 OH        1 <0>       -0.60880
     12 O5          0.6777   -0.1947   -1.9563 OH        1 <0>       -0.61562
     13 H1         -1.2044   -0.1830    1.8806 HC        1 <0>        0.06415
     14 H2         -0.4420   -0.5179    3.4292 HC        1 <0>        0.06415
     15 H3          1.2520   -1.9445    2.3350 H1        1 <0>        0.04873
     16 H4         -0.3676   -2.5394    1.9887 H1        1 <0>        0.04873
     17 H5          0.2816    1.6984    2.6001 H1        1 <0>        0.05186
     18 H6          1.6397    0.5868    2.6882 H1        1 <0>        0.05186
     19 H7         -1.4207   -1.8253    0.1100 H1        1 <0>        0.06035
     20 H8         -0.3322   -2.5268   -1.1032 H1        1 <0>        0.06035
     21 H9         -0.5244    2.3353    0.6451 H3        1 <0>        0.11199
     22 H10        -1.7349    0.3471   -2.9498 HC        1 <0>        0.05466
     23 H11        -2.6188   -0.7329   -1.8546 HC        1 <0>        0.05466
     24 H12        -1.4239   -1.3992   -2.9842 HC        1 <0>        0.05466
     25 H13         1.1156    3.0680   -0.6359 HO        1 <0>        0.44156
     26 H14         0.8079   -0.9755   -2.5158 HO        1 <0>        0.43750
@<TRIPOS>BOND
     1    1    2 1
     2    1    3 1
     3    2    8 1
     4    3    9 1
     5    4    6 1
     6    4    8 1
     7    5    9 1
     8    5   10 1
     9    5   11 1
    10    6    7 1
    11    6   10 1
    12    6   12 1
    13    1   13 1
    14    1   14 1
    15    2   15 1
    16    2   16 1
    17    3   17 1
    18    3   18 1
    19    4   19 1
    20    4   20 1
    21    5   21 1
    22    7   22 1
    23    7   23 1
    24    7   24 1
    25   11   25 1
    26   12   26 1
@<TRIPOS>SUBSTRUCTURE
     1 <0>         1 GROUP 0 A     ****
