@<TRIPOS>MOLECULE
AlkEthOH_r535
   25    25     1     0     0
SMALL
USER_CHARGES

@<TRIPOS>ATOM
      1 C1          1.5222   -0.0576   -1.0608 CT        1 <0>       -0.17666
      2 C2          0.7878   -1.2838   -1.6019 CT        1 <0>        0.13196
      3 C3         -1.3460   -0.3338   -1.0967 CT        1 <0>        0.07469
      4 C4          1.2038    0.3104    0.3954 CT        1 <0>        0.36368
      5 C5         -1.2523    0.3938    0.2486 CT        1 <0>        0.33687
      6 C6          2.2951    1.2552    0.9142 CT        1 <0>       -0.10994
      7 C7         -2.3115    1.4987    0.2884 CT        1 <0>       -0.08055
      8 O1         -0.5150   -1.4884   -1.0801 OS        1 <0>       -0.41547
      9 O2         -0.0114    1.0634    0.4674 OS        1 <0>       -0.43753
     10 O3          1.2038   -0.8602    1.2085 OH        1 <0>       -0.60601
     11 O4         -1.5765   -0.4976    1.3170 OH        1 <0>       -0.59678
     12 H1          2.5956   -0.2504   -1.1843 HC        1 <0>        0.06387
     13 H2          1.2873    0.8021   -1.7022 HC        1 <0>        0.06387
     14 H3          0.7316   -1.2362   -2.6957 H1        1 <0>        0.04945
     15 H4          1.3638   -2.1840   -1.3601 H1        1 <0>        0.04945
     16 H5         -2.3663   -0.7065   -1.2414 H1        1 <0>        0.06345
     17 H6         -1.1011    0.3159   -1.9453 H1        1 <0>        0.06345
     18 H7          2.0817    1.5239    1.9451 HC        1 <0>        0.05279
     19 H8          2.3171    2.1534    0.3033 HC        1 <0>        0.05279
     20 H9          3.2597    0.7579    0.8619 HC        1 <0>        0.05279
     21 H10        -2.2539    2.0216    1.2390 HC        1 <0>        0.05489
     22 H11        -3.2985    1.0584    0.1767 HC        1 <0>        0.05489
     23 H12        -2.1340    2.2001   -0.5221 HC        1 <0>        0.05489
     24 H13         2.0916   -1.2442    1.1398 HO        1 <0>        0.40857
     25 H14        -2.4822   -0.7991    1.1537 HO        1 <0>        0.43059
@<TRIPOS>BOND
     1    1    2 1
     2    1    4 1
     3    2    8 1
     4    3    5 1
     5    3    8 1
     6    4    6 1
     7    4    9 1
     8    4   10 1
     9    5    7 1
    10    5    9 1
    11    5   11 1
    12    1   12 1
    13    1   13 1
    14    2   14 1
    15    2   15 1
    16    3   16 1
    17    3   17 1
    18    6   18 1
    19    6   19 1
    20    6   20 1
    21    7   21 1
    22    7   22 1
    23    7   23 1
    24   10   24 1
    25   11   25 1
@<TRIPOS>SUBSTRUCTURE
     1 <0>         1 GROUP 0 A     ****
