@<TRIPOS>MOLECULE
AlkEthOH_r230
   32    32     1     0     0
SMALL
USER_CHARGES

@<TRIPOS>ATOM
      1 C1         -2.2668   -0.0831    0.8311 CT        1 <0>       -0.06877
      2 C2         -1.3911   -0.0035    2.0888 CT        1 <0>       -0.11088
      3 C3         -2.0472    1.0483   -0.1824 CT        1 <0>       -0.10797
      4 C4          0.0414    0.0567   -1.3331 CT        1 <0>       -0.06467
      5 C5         -0.4565   -1.2078    2.2518 CT        1 <0>        0.13059
      6 C6          1.3387   -0.6202    0.7849 CT        1 <0>        0.13171
      7 C7         -0.6073    1.2833   -0.6661 CT        1 <0>        0.14688
      8 C8          1.4214   -0.3615   -0.7386 CT        1 <0>       -0.05780
      9 C9          1.8650   -1.6590   -1.4480 CT        1 <0>       -0.08715
     10 C10         2.4796    0.7222   -1.0105 CT        1 <0>       -0.08715
     11 O1          0.2612   -1.5112    1.0607 OS        1 <0>       -0.41957
     12 O2         -0.6384    2.3357   -1.6387 OH        1 <0>       -0.60684
     13 H1         -2.1642   -1.0551    0.3366 HC        1 <0>        0.04912
     14 H2         -3.3177   -0.0339    1.1461 HC        1 <0>        0.04912
     15 H3         -0.8131    0.9254    2.1021 HC        1 <0>        0.04281
     16 H4         -2.0378    0.0402    2.9742 HC        1 <0>        0.04281
     17 H5         -2.6936    0.8686   -1.0520 HC        1 <0>        0.04207
     18 H6         -2.4190    1.9866    0.2519 HC        1 <0>        0.04207
     19 H7         -0.6360   -0.8033   -1.2794 HC        1 <0>        0.06367
     20 H8          0.1725    0.2489   -2.4072 HC        1 <0>        0.06367
     21 H9          0.2374   -1.0586    3.0871 H1        1 <0>        0.04520
     22 H10        -1.0589   -2.0918    2.4892 H1        1 <0>        0.04520
     23 H11         2.2610   -1.0912    1.1458 H1        1 <0>        0.03343
     24 H12         1.2358    0.3204    1.3361 H1        1 <0>        0.03343
     25 H13        -0.0056    1.6647    0.1615 H1        1 <0>        0.02878
     26 H14         2.8237   -1.9683   -1.0496 HC        1 <0>        0.03776
     27 H15         1.9508   -1.4678   -2.5107 HC        1 <0>        0.03776
     28 H16         1.1245   -2.4291   -1.2693 HC        1 <0>        0.03776
     29 H17         3.4287    0.4090   -0.5884 HC        1 <0>        0.03776
     30 H18         2.1643    1.6529   -0.5508 HC        1 <0>        0.03776
     31 H19         2.5833    0.8598   -2.0816 HC        1 <0>        0.03776
     32 H20        -0.9971    3.1107   -1.1840 HO        1 <0>        0.39368
@<TRIPOS>BOND
     1    1    2 1
     2    1    3 1
     3    2    5 1
     4    3    7 1
     5    4    7 1
     6    4    8 1
     7    5   11 1
     8    6    8 1
     9    6   11 1
    10    7   12 1
    11    8    9 1
    12    8   10 1
    13    1   13 1
    14    1   14 1
    15    2   15 1
    16    2   16 1
    17    3   17 1
    18    3   18 1
    19    4   19 1
    20    4   20 1
    21    5   21 1
    22    5   22 1
    23    6   23 1
    24    6   24 1
    25    7   25 1
    26    9   26 1
    27    9   27 1
    28    9   28 1
    29   10   29 1
    30   10   30 1
    31   10   31 1
    32   12   32 1
@<TRIPOS>SUBSTRUCTURE
     1 <0>         1 GROUP 0 A     ****
