@<TRIPOS>MOLECULE
AlkEthOH_r163
   22    22     1     0     0
SMALL
USER_CHARGES

@<TRIPOS>ATOM
      1 C1         -1.7617   -0.8396    0.2147 CT        1 <0>       -0.14969
      2 C2         -1.5641   -0.2190    1.5993 CT        1 <0>        0.14346
      3 C3         -1.6666    0.1765   -0.9258 CT        1 <0>        0.15115
      4 C4          1.7244   -0.0267   -0.2996 CT        1 <0>        0.09882
      5 C5          0.8139   -0.2996    1.8956 CT        1 <0>        0.32151
      6 C6          0.6804    0.0784   -1.4107 CT        1 <0>        0.31088
      7 O1         -0.3477    0.5110    1.7350 OS        1 <0>       -0.43153
      8 O2          1.2813   -0.9349    0.7075 OS        1 <0>       -0.45092
      9 O3         -0.4198    0.8646   -0.9545 OS        1 <0>       -0.44010
     10 O4          1.2600    0.6894   -2.5615 OH        1 <0>       -0.60484
     11 H1         -1.0219   -1.6311    0.0631 HC        1 <0>        0.05920
     12 H2         -2.7460   -1.3210    0.1805 HC        1 <0>        0.05920
     13 H3         -2.3770    0.4922    1.7843 H1        1 <0>        0.04569
     14 H4         -1.6334   -0.9859    2.3795 H1        1 <0>        0.04569
     15 H5         -1.8481   -0.3055   -1.8937 H1        1 <0>        0.04756
     16 H6         -2.4464    0.9350   -0.7966 H1        1 <0>        0.04756
     17 H7          2.6549   -0.4328   -0.7118 H1        1 <0>        0.05974
     18 H8          1.9637    0.9582    0.1201 H1        1 <0>        0.05974
     19 H9          1.6135    0.3339    2.2960 H2        1 <0>        0.06292
     20 H10         0.6247   -1.0759    2.6453 H2        1 <0>        0.06292
     21 H11         0.3443   -0.9378   -1.7019 H2        1 <0>        0.08429
     22 H12         1.5585    1.5698   -2.2858 HO        1 <0>        0.41675
@<TRIPOS>BOND
     1    1    2 1
     2    1    3 1
     3    2    7 1
     4    3    9 1
     5    4    6 1
     6    4    8 1
     7    5    7 1
     8    5    8 1
     9    6    9 1
    10    6   10 1
    11    1   11 1
    12    1   12 1
    13    2   13 1
    14    2   14 1
    15    3   15 1
    16    3   16 1
    17    4   17 1
    18    4   18 1
    19    5   19 1
    20    5   20 1
    21    6   21 1
    22   10   22 1
@<TRIPOS>SUBSTRUCTURE
     1 <0>         1 GROUP 0 A     ****
