@<TRIPOS>MOLECULE
AlkEthOH_r798
   24    24     1     0     0
SMALL
USER_CHARGES

@<TRIPOS>ATOM
      1 C1          1.1630   -0.1298    1.2905 CT        1 <0>       -0.14300
      2 C2          0.0299    1.4205   -0.4374 CT        1 <0>       -0.12240
      3 C3          1.0433   -1.6247    0.9860 CT        1 <0>        0.14107
      4 C4         -1.1611   -1.6972    0.0682 CT        1 <0>        0.32179
      5 C5          1.3280    0.7500    0.0422 CT        1 <0>        0.14821
      6 C6         -1.0673    0.4663   -0.9211 CT        1 <0>        0.15136
      7 C7         -2.2687    1.2537   -1.4349 CT        1 <0>       -0.10499
      8 O1          0.2280   -1.9316   -0.1369 OS        1 <0>       -0.44902
      9 O2         -1.5235   -0.3240    0.1780 OS        1 <0>       -0.45311
     10 O3          2.2284    1.8168    0.3653 OH        1 <0>       -0.60214
     11 H1          0.2892    0.2009    1.8646 HC        1 <0>        0.05925
     12 H2          2.0148    0.0048    1.9698 HC        1 <0>        0.05925
     13 H3         -0.3568    2.0438    0.3808 HC        1 <0>        0.05355
     14 H4          0.2799    2.1199   -1.2461 HC        1 <0>        0.05355
     15 H5          2.0422   -2.0103    0.7528 H1        1 <0>        0.04813
     16 H6          0.6938   -2.1737    1.8682 H1        1 <0>        0.04813
     17 H7         -1.7041   -2.1332   -0.7776 H2        1 <0>        0.06202
     18 H8         -1.4979   -2.2182    0.9710 H2        1 <0>        0.06202
     19 H9          1.7881    0.1864   -0.7783 H1        1 <0>        0.08312
     20 H10        -0.6896   -0.1577   -1.7413 H1        1 <0>        0.05859
     21 H11        -2.6663    1.8841   -0.6404 HC        1 <0>        0.04326
     22 H12        -3.0470    0.5678   -1.7672 HC        1 <0>        0.04326
     23 H13        -1.9689    1.8834   -2.2718 HC        1 <0>        0.04326
     24 H14         1.8180    2.3024    1.0945 HO        1 <0>        0.39484
@<TRIPOS>BOND
     1    1    3 1
     2    1    5 1
     3    2    5 1
     4    2    6 1
     5    3    8 1
     6    4    8 1
     7    4    9 1
     8    5   10 1
     9    6    7 1
    10    6    9 1
    11    1   11 1
    12    1   12 1
    13    2   13 1
    14    2   14 1
    15    3   15 1
    16    3   16 1
    17    4   17 1
    18    4   18 1
    19    5   19 1
    20    6   20 1
    21    7   21 1
    22    7   22 1
    23    7   23 1
    24   10   24 1
@<TRIPOS>SUBSTRUCTURE
     1 <0>         1 GROUP 0 A     ****
