@<TRIPOS>MOLECULE
AlkEthOH_r1057
   19    19     1     0     0
SMALL
USER_CHARGES

@<TRIPOS>ATOM
      1 C1         -1.4263    0.5235   -0.4660 CT        1 <0>        0.11299
      2 C2         -0.0948   -0.0012   -1.0173 CT        1 <0>       -0.11563
      3 C3          0.3867    0.1182    0.4567 CT        1 <0>        0.13760
      4 C4          0.5597    0.8212   -2.1091 CT        1 <0>       -0.08587
      5 C5          1.6218    0.9930    0.6364 CT        1 <0>       -0.09567
      6 C6          0.4570   -1.1529    1.2959 CT        1 <0>       -0.09567
      7 O1         -0.8130    0.8702    0.7998 OS        1 <0>       -0.42432
      8 H1         -1.8274    1.4025   -0.9780 H1        1 <0>        0.05356
      9 H2         -2.2204   -0.2166   -0.3264 H1        1 <0>        0.05356
     10 H3         -0.1795   -1.0449   -1.3506 HC        1 <0>        0.06465
     11 H4          0.6531    1.8641   -1.7963 HC        1 <0>        0.04080
     12 H5         -0.0380    0.7851   -3.0232 HC        1 <0>        0.04080
     13 H6          1.5575    0.4344   -2.3309 HC        1 <0>        0.04080
     14 H7          1.9011    1.0310    1.6891 HC        1 <0>        0.04540
     15 H8          1.4151    2.0048    0.2881 HC        1 <0>        0.04540
     16 H9          2.4540    0.5842    0.0636 HC        1 <0>        0.04540
     17 H10         0.8086   -0.9164    2.2998 HC        1 <0>        0.04540
     18 H11         1.1445   -1.8632    0.8375 HC        1 <0>        0.04540
     19 H12        -0.5305   -1.6083    1.3640 HC        1 <0>        0.04540
@<TRIPOS>BOND
     1    1    2 1
     2    1    7 1
     3    2    3 1
     4    2    4 1
     5    3    5 1
     6    3    6 1
     7    3    7 1
     8    1    8 1
     9    1    9 1
    10    2   10 1
    11    4   11 1
    12    4   12 1
    13    4   13 1
    14    5   14 1
    15    5   15 1
    16    5   16 1
    17    6   17 1
    18    6   18 1
    19    6   19 1
@<TRIPOS>SUBSTRUCTURE
     1 <0>         1 GROUP 0 A     ****
