@<TRIPOS>MOLECULE
AlkEthOH_r346
   32    32     1     0     0
SMALL
USER_CHARGES

@<TRIPOS>ATOM
      1 C1          1.5388   -1.5062    1.5013 CT        1 <0>       -0.07472
      2 C2          0.8468   -0.2921    2.1226 CT        1 <0>       -0.06813
      3 C3          1.8079   -1.4284   -0.0023 CT        1 <0>       -0.06813
      4 C4         -0.6170   -0.1231    1.7104 CT        1 <0>       -0.10467
      5 C5          0.5505   -1.5027   -0.8712 CT        1 <0>       -0.10467
      6 C6          0.0288    1.0442   -0.5392 CT        1 <0>       -0.04590
      7 C7         -0.9053    0.9959    0.6913 CT        1 <0>        0.16309
      8 C8          0.0826   -0.1726   -1.4926 CT        1 <0>        0.16309
      9 C9         -0.8563    2.3666    1.3924 CT        1 <0>       -0.12663
     10 C10         0.9900    0.1860   -2.6837 CT        1 <0>       -0.12663
     11 O1         -2.2501    0.8240    0.2267 OH        1 <0>       -0.57329
     12 O2         -1.2166   -0.3915   -2.0558 OH        1 <0>       -0.57329
     13 H1          2.5069   -1.6280    2.0045 HC        1 <0>        0.03824
     14 H2          0.9661   -2.4144    1.7275 HC        1 <0>        0.03824
     15 H3          0.8665   -0.4420    3.2105 HC        1 <0>        0.03818
     16 H4          1.4332    0.6142    1.9404 HC        1 <0>        0.03818
     17 H5          2.4161   -0.5480   -0.2333 HC        1 <0>        0.03818
     18 H6          2.4341   -2.2946   -0.2548 HC        1 <0>        0.03818
     19 H7         -1.0471   -1.0737    1.3771 HC        1 <0>        0.04597
     20 H8         -1.1967    0.0996    2.6184 HC        1 <0>        0.04597
     21 H9          0.7554   -2.1997   -1.6974 HC        1 <0>        0.04597
     22 H10        -0.2703   -1.9954   -0.3390 HC        1 <0>        0.04597
     23 H11        -0.3101    1.8962   -1.1484 HC        1 <0>        0.05500
     24 H12         1.0449    1.3034   -0.2184 HC        1 <0>        0.05500
     25 H13        -1.0604    3.1457    0.6662 HC        1 <0>        0.04052
     26 H14         0.1295    2.5130    1.8199 HC        1 <0>        0.04052
     27 H15        -1.6041    2.3919    2.1775 HC        1 <0>        0.04052
     28 H16         0.6558    1.1224   -3.1164 HC        1 <0>        0.04052
     29 H17         0.9314   -0.6026   -3.4257 HC        1 <0>        0.04052
     30 H18         2.0118    0.2868   -2.3350 HC        1 <0>        0.04052
     31 H19        -2.8149    0.8929    1.0092 HO        1 <0>        0.38684
     32 H20        -1.1062   -1.0837   -2.7225 HO        1 <0>        0.38684
@<TRIPOS>BOND
     1    1    2 1
     2    1    3 1
     3    2    4 1
     4    3    5 1
     5    4    7 1
     6    5    8 1
     7    6    7 1
     8    6    8 1
     9    7    9 1
    10    7   11 1
    11    8   10 1
    12    8   12 1
    13    1   13 1
    14    1   14 1
    15    2   15 1
    16    2   16 1
    17    3   17 1
    18    3   18 1
    19    4   19 1
    20    4   20 1
    21    5   21 1
    22    5   22 1
    23    6   23 1
    24    6   24 1
    25    9   25 1
    26    9   26 1
    27    9   27 1
    28   10   28 1
    29   10   29 1
    30   10   30 1
    31   11   31 1
    32   12   32 1
@<TRIPOS>SUBSTRUCTURE
     1 <0>         1 GROUP 0 A     ****
