@<TRIPOS>MOLECULE
AlkEthOH_r926
   29    29     1     0     0
SMALL
USER_CHARGES

@<TRIPOS>ATOM
      1 C1         -0.2376    0.8251    2.1113 CT        1 <0>       -0.05927
      2 C2         -1.5114    0.7584    1.2714 CT        1 <0>       -0.10801
      3 C3          1.0710    0.3409    1.4784 CT        1 <0>       -0.07372
      4 C4          0.4475    0.5178   -1.0719 CT        1 <0>       -0.12113
      5 C5         -1.8378   -0.5913    0.6339 CT        1 <0>        0.14400
      6 C6          1.4308    0.8517    0.0706 CT        1 <0>       -0.04644
      7 C7         -0.1539   -0.8995   -1.1084 CT        1 <0>        0.35098
      8 C8          1.6982    2.3615    0.0915 CT        1 <0>       -0.09241
      9 C9          0.9383   -1.9236   -1.4403 CT        1 <0>       -0.11331
     10 O1         -0.7272   -1.3177    0.1307 OS        1 <0>       -0.40851
     11 O2         -1.1179   -0.9234   -2.1674 OH        1 <0>       -0.62651
     12 H1         -0.1041    1.8646    2.4371 HC        1 <0>        0.03512
     13 H2         -0.3978    0.2471    3.0307 HC        1 <0>        0.03512
     14 H3         -2.3605    1.0442    1.9067 HC        1 <0>        0.04016
     15 H4         -1.4829    1.5409    0.5096 HC        1 <0>        0.04016
     16 H5          1.8838    0.6282    2.1605 HC        1 <0>        0.04618
     17 H6          1.0993   -0.7544    1.4903 HC        1 <0>        0.04618
     18 H7         -0.3612    1.2545   -1.1060 HC        1 <0>        0.04832
     19 H8          0.9652    0.6949   -2.0270 HC        1 <0>        0.04832
     20 H9         -2.2795   -1.2272    1.4099 H1        1 <0>        0.05534
     21 H10        -2.6059   -0.4774   -0.1392 H1        1 <0>        0.05534
     22 H11         2.3857    0.3727   -0.1874 HC        1 <0>        0.03909
     23 H12         0.7820    2.8890    0.3429 HC        1 <0>        0.03403
     24 H13         2.0430    2.6825   -0.8877 HC        1 <0>        0.03403
     25 H14         2.4595    2.5850    0.8341 HC        1 <0>        0.03403
     26 H15         0.5060   -2.9203   -1.4641 HC        1 <0>        0.05157
     27 H16         1.7150   -1.8845   -0.6813 HC        1 <0>        0.05157
     28 H17         1.3691   -1.6930   -2.4109 HC        1 <0>        0.05157
     29 H18        -0.6328   -0.7124   -2.9778 HO        1 <0>        0.40820
@<TRIPOS>BOND
     1    1    2 1
     2    1    3 1
     3    2    5 1
     4    3    6 1
     5    4    6 1
     6    4    7 1
     7    5   10 1
     8    6    8 1
     9    7    9 1
    10    7   10 1
    11    7   11 1
    12    1   12 1
    13    1   13 1
    14    2   14 1
    15    2   15 1
    16    3   16 1
    17    3   17 1
    18    4   18 1
    19    4   19 1
    20    5   20 1
    21    5   21 1
    22    6   22 1
    23    8   23 1
    24    8   24 1
    25    8   25 1
    26    9   26 1
    27    9   27 1
    28    9   28 1
    29   11   29 1
@<TRIPOS>SUBSTRUCTURE
     1 <0>         1 GROUP 0 A     ****
