@<TRIPOS>MOLECULE
AlkEthOH_r1096
   25    25     1     0     0
SMALL
USER_CHARGES

@<TRIPOS>ATOM
      1 C1          1.5152    1.4322   -1.0678 CT        1 <0>        0.11072
      2 C2          1.8625    0.0345   -0.5691 CT        1 <0>        0.11812
      3 C3         -0.8384    1.4432   -0.6343 CT        1 <0>        0.09757
      4 C4         -1.3447    0.6169    0.5510 CT        1 <0>        0.13985
      5 C5         -0.0202   -1.3633    0.0377 CT        1 <0>        0.53488
      6 C6         -1.6215    1.5106    1.7588 CT        1 <0>       -0.09114
      7 C7          0.7290   -2.4448    0.8305 CT        1 <0>       -0.11002
      8 O1          0.4344    2.0169   -0.3413 OS        1 <0>       -0.41222
      9 O2          0.8599   -0.8887   -0.9919 OS        1 <0>       -0.49914
     10 O3         -0.4153   -0.3726    0.9968 OS        1 <0>       -0.43223
     11 O4         -1.1609   -1.9848   -0.5704 OH        1 <0>       -0.61405
     12 H1          2.3804    2.0861   -0.9171 H1        1 <0>        0.05393
     13 H2          1.2802    1.4338   -2.1385 H1        1 <0>        0.05393
     14 H3          2.8009   -0.2843   -1.0343 H1        1 <0>        0.05859
     15 H4          2.0041    0.0283    0.5165 H1        1 <0>        0.05859
     16 H5         -0.8129    0.8525   -1.5566 H1        1 <0>        0.05641
     17 H6         -1.5312    2.2715   -0.8224 H1        1 <0>        0.05641
     18 H7         -2.2866    0.1259    0.2773 H1        1 <0>        0.06250
     19 H8         -0.7060    2.0164    2.0604 HC        1 <0>        0.04799
     20 H9         -1.9857    0.9068    2.5880 HC        1 <0>        0.04799
     21 H10        -2.3730    2.2550    1.5017 HC        1 <0>        0.04799
     22 H11         0.0880   -2.8267    1.6211 HC        1 <0>        0.05965
     23 H12         1.6274   -2.0180    1.2694 HC        1 <0>        0.05965
     24 H13         1.0046   -3.2590    0.1649 HC        1 <0>        0.05965
     25 H14        -0.8144   -2.6810   -1.1471 HO        1 <0>        0.43438
@<TRIPOS>BOND
     1    1    2 1
     2    1    8 1
     3    2    9 1
     4    3    4 1
     5    3    8 1
     6    4    6 1
     7    4   10 1
     8    5    7 1
     9    5    9 1
    10    5   10 1
    11    5   11 1
    12    1   12 1
    13    1   13 1
    14    2   14 1
    15    2   15 1
    16    3   16 1
    17    3   17 1
    18    4   18 1
    19    6   19 1
    20    6   20 1
    21    6   21 1
    22    7   22 1
    23    7   23 1
    24    7   24 1
    25   11   25 1
@<TRIPOS>SUBSTRUCTURE
     1 <0>         1 GROUP 0 A     ****
