@<TRIPOS>MOLECULE
AlkEthOH_r87
   24    24     1     0     0
SMALL
USER_CHARGES

@<TRIPOS>ATOM
      1 C1          0.5127    1.9739   -0.7155 CT        1 <0>       -0.06921
      2 C2          1.7014    1.3748    0.0334 CT        1 <0>       -0.11360
      3 C3         -0.7944    1.1744   -0.7227 CT        1 <0>       -0.11482
      4 C4          1.4505    1.1037    1.5145 CT        1 <0>        0.13091
      5 C5          0.4315   -1.0305    1.2007 CT        1 <0>        0.10036
      6 C6         -0.6493   -0.3175   -1.0572 CT        1 <0>        0.15122
      7 C7         -0.6647   -1.2589    0.1617 CT        1 <0>        0.12531
      8 O1          0.3283    0.2674    1.7657 OS        1 <0>       -0.41714
      9 O2         -1.7858   -0.6883   -1.8563 OH        1 <0>       -0.59263
     10 O3         -0.5301   -2.5989   -0.3243 OH        1 <0>       -0.58994
     11 H1          0.3033    2.9727   -0.3122 HC        1 <0>        0.03875
     12 H2          0.8219    2.1296   -1.7572 HC        1 <0>        0.03875
     13 H3          2.0184    0.4580   -0.4747 HC        1 <0>        0.04954
     14 H4          2.5483    2.0673   -0.0502 HC        1 <0>        0.04954
     15 H5         -1.3197    1.3022    0.2315 HC        1 <0>        0.05889
     16 H6         -1.4531    1.6525   -1.4611 HC        1 <0>        0.05889
     17 H7          2.3399    0.6593    1.9767 H1        1 <0>        0.04736
     18 H8          1.2636    2.0520    2.0301 H1        1 <0>        0.04736
     19 H9          0.2967   -1.7510    2.0168 H1        1 <0>        0.04827
     20 H10         1.4261   -1.2461    0.7913 H1        1 <0>        0.04827
     21 H11         0.2320   -0.5049   -1.6815 H1        1 <0>        0.04543
     22 H12        -1.6463   -1.1883    0.6469 H1        1 <0>        0.05960
     23 H13        -1.7471   -0.1314   -2.6451 HO        1 <0>        0.39792
     24 H14        -0.6357   -3.1777    0.4446 HO        1 <0>        0.40097
@<TRIPOS>BOND
     1    1    2 1
     2    1    3 1
     3    2    4 1
     4    3    6 1
     5    4    8 1
     6    5    7 1
     7    5    8 1
     8    6    7 1
     9    6    9 1
    10    7   10 1
    11    1   11 1
    12    1   12 1
    13    2   13 1
    14    2   14 1
    15    3   15 1
    16    3   16 1
    17    4   17 1
    18    4   18 1
    19    5   19 1
    20    5   20 1
    21    6   21 1
    22    7   22 1
    23    9   23 1
    24   10   24 1
@<TRIPOS>SUBSTRUCTURE
     1 <0>         1 GROUP 0 A     ****
