@<TRIPOS>MOLECULE
AlkEthOH_r541
   22    22     1     0     0
SMALL
USER_CHARGES

@<TRIPOS>ATOM
      1 C1          0.4134    0.5392    0.8605 CT        1 <0>       -0.10416
      2 C2         -0.0522    2.1725    2.7119 CT        1 <0>       -0.10416
      3 C3          0.8392   -0.4518    1.9392 CT        1 <0>        0.12776
      4 C4          0.4012    1.0883    3.6848 CT        1 <0>        0.12776
      5 C5         -0.5899    1.5871    1.3885 CT        1 <0>       -0.05167
      6 C6         -0.7430    2.7160    0.3537 CT        1 <0>       -0.08765
      7 C7         -1.9754    0.9482    1.6039 CT        1 <0>       -0.08765
      8 O1          1.3648    0.2317    3.0752 OS        1 <0>       -0.41483
      9 H1          1.3136    1.0609    0.5087 HC        1 <0>        0.05018
     10 H2         -0.0003   -0.0000    0.0002 HC        1 <0>        0.05018
     11 H3         -0.8023    2.8135    3.1899 HC        1 <0>        0.05018
     12 H4          0.8157    2.8074    2.4879 HC        1 <0>        0.05018
     13 H5          0.0133   -1.1007    2.2503 H1        1 <0>        0.04531
     14 H6          1.6303   -1.1007    1.5494 H1        1 <0>        0.04531
     15 H7          0.8760    1.5522    4.5555 H1        1 <0>        0.04531
     16 H8         -0.4391    0.4912    4.0552 H1        1 <0>        0.04531
     17 H9         -1.4484    3.4505    0.7276 HC        1 <0>        0.03544
     18 H10        -1.1090    2.2991   -0.5786 HC        1 <0>        0.03544
     19 H11         0.2217    3.1850    0.1909 HC        1 <0>        0.03544
     20 H12        -2.6608    1.7023    1.9740 HC        1 <0>        0.03544
     21 H13        -1.8877    0.1450    2.3268 HC        1 <0>        0.03544
     22 H14        -2.3361    0.5553    0.6599 HC        1 <0>        0.03544
@<TRIPOS>BOND
     1    1    3 1
     2    1    5 1
     3    2    4 1
     4    2    5 1
     5    3    8 1
     6    4    8 1
     7    5    6 1
     8    5    7 1
     9    1    9 1
    10    1   10 1
    11    2   11 1
    12    2   12 1
    13    3   13 1
    14    3   14 1
    15    4   15 1
    16    4   16 1
    17    6   17 1
    18    6   18 1
    19    6   19 1
    20    7   20 1
    21    7   21 1
    22    7   22 1
@<TRIPOS>SUBSTRUCTURE
     1 <0>         1 GROUP 0 A     ****
