@<TRIPOS>MOLECULE
AlkEthOH_r69
   22    22     1     0     0
SMALL
USER_CHARGES

@<TRIPOS>ATOM
      1 C1         -0.4255    0.7437   -1.4215 CT        1 <0>       -0.07585
      2 C2         -1.2150   -0.5642   -1.3024 CT        1 <0>       -0.06828
      3 C3          1.0912    0.6084   -1.2528 CT        1 <0>       -0.06828
      4 C4         -0.8735   -1.4882   -0.1333 CT        1 <0>       -0.10354
      5 C5          1.6163    1.0321    0.1248 CT        1 <0>       -0.10354
      6 C6         -1.0260   -0.8633    1.2517 CT        1 <0>        0.13225
      7 C7          1.1204    0.1936    1.2981 CT        1 <0>        0.13225
      8 O1         -0.2880    0.3378    1.4354 OS        1 <0>       -0.41865
      9 H1         -0.6219    1.1408   -2.4265 HC        1 <0>        0.04632
     10 H2         -0.8294    1.4959   -0.7340 HC        1 <0>        0.04632
     11 H3         -2.2840   -0.3200   -1.2663 HC        1 <0>        0.03520
     12 H4         -1.0689   -1.1361   -2.2281 HC        1 <0>        0.03520
     13 H5          1.4305   -0.4042   -1.4975 HC        1 <0>        0.03520
     14 H6          1.5684    1.2696   -1.9884 HC        1 <0>        0.03520
     15 H7         -1.5281   -2.3673   -0.1857 HC        1 <0>        0.04453
     16 H8          0.1435   -1.8716   -0.2659 HC        1 <0>        0.04453
     17 H9          2.7120    0.9947    0.1061 HC        1 <0>        0.04453
     18 H10         1.3365    2.0799    0.2922 HC        1 <0>        0.04453
     19 H11        -2.0800   -0.6189    1.4229 H1        1 <0>        0.04052
     20 H12        -0.7363   -1.5830    2.0264 H1        1 <0>        0.04052
     21 H13         1.4358   -0.8516    1.2080 H1        1 <0>        0.04052
     22 H14         1.5709    0.5804    2.2188 H1        1 <0>        0.04052
@<TRIPOS>BOND
     1    1    2 1
     2    1    3 1
     3    2    4 1
     4    3    5 1
     5    4    6 1
     6    5    7 1
     7    6    8 1
     8    7    8 1
     9    1    9 1
    10    1   10 1
    11    2   11 1
    12    2   12 1
    13    3   13 1
    14    3   14 1
    15    4   15 1
    16    4   16 1
    17    5   17 1
    18    5   18 1
    19    6   19 1
    20    6   20 1
    21    7   21 1
    22    7   22 1
@<TRIPOS>SUBSTRUCTURE
     1 <0>         1 GROUP 0 A     ****
