@<TRIPOS>MOLECULE
AlkEthOH_r688
   24    24     1     0     0
SMALL
USER_CHARGES

@<TRIPOS>ATOM
      1 C1         -1.2608   -0.5488   -1.7225 CT        1 <0>       -0.10400
      2 C2         -0.8573    0.9161   -1.5656 CT        1 <0>       -0.13186
      3 C3         -1.3723   -1.3037   -0.4043 CT        1 <0>        0.13718
      4 C4          0.4237    1.1243   -0.7584 CT        1 <0>        0.34160
      5 C5          0.4185   -0.5212    1.0176 CT        1 <0>        0.35036
      6 C6          1.9266   -0.7565    1.1686 CT        1 <0>       -0.10653
      7 C7         -0.2289   -0.6903    2.3980 CT        1 <0>       -0.10653
      8 O1         -0.0762   -1.5348    0.1364 OS        1 <0>       -0.45780
      9 O2          0.1825    0.8311    0.6139 OS        1 <0>       -0.43377
     10 O3          0.8441    2.4837   -0.8837 OH        1 <0>       -0.59242
     11 H1         -2.2240   -0.5901   -2.2441 HC        1 <0>        0.05306
     12 H2         -0.5215   -1.0465   -2.3621 HC        1 <0>        0.05306
     13 H3         -0.7441    1.3625   -2.5614 HC        1 <0>        0.05537
     14 H4         -1.6793    1.4586   -1.0803 HC        1 <0>        0.05537
     15 H5         -2.0362   -0.7950    0.3018 H1        1 <0>        0.05331
     16 H6         -1.8068   -2.2888   -0.6046 H1        1 <0>        0.05331
     17 H7          1.2386    0.4956   -1.1671 H2        1 <0>        0.05130
     18 H8          2.4100   -0.6423    0.2022 HC        1 <0>        0.05364
     19 H9          2.1009   -1.7612    1.5437 HC        1 <0>        0.05364
     20 H10         2.3383   -0.0329    1.8669 HC        1 <0>        0.05364
     21 H11        -1.3003   -0.5282    2.3183 HC        1 <0>        0.05364
     22 H12         0.1960    0.0330    3.0886 HC        1 <0>        0.05364
     23 H13        -0.0412   -1.6954    2.7657 HC        1 <0>        0.05364
     24 H14         0.9985    2.6364   -1.8281 HO        1 <0>        0.40715
@<TRIPOS>BOND
     1    1    2 1
     2    1    3 1
     3    2    4 1
     4    3    8 1
     5    4    9 1
     6    4   10 1
     7    5    6 1
     8    5    7 1
     9    5    8 1
    10    5    9 1
    11    1   11 1
    12    1   12 1
    13    2   13 1
    14    2   14 1
    15    3   15 1
    16    3   16 1
    17    4   17 1
    18    6   18 1
    19    6   19 1
    20    6   20 1
    21    7   21 1
    22    7   22 1
    23    7   23 1
    24   10   24 1
@<TRIPOS>SUBSTRUCTURE
     1 <0>         1 GROUP 0 A     ****
