@<TRIPOS>MOLECULE
AlkEthOH_r480
   30    30     1     0     0
SMALL
USER_CHARGES

@<TRIPOS>ATOM
      1 C1          0.1584    1.9471   -1.2262 CT        1 <0>       -0.10574
      2 C2          1.2597    0.9203   -0.9435 CT        1 <0>       -0.10168
      3 C3         -0.4353   -0.9968   -0.3950 CT        1 <0>       -0.08531
      4 C4         -0.5499    2.4798    0.0192 CT        1 <0>        0.12849
      5 C5         -0.5698    0.6755    1.5843 CT        1 <0>        0.13688
      6 C6          0.8669   -0.5635   -1.1003 CT        1 <0>        0.16207
      7 C7         -0.5927   -0.7886    1.1296 CT        1 <0>        0.14268
      8 C8          0.7522   -0.9237   -2.5940 CT        1 <0>       -0.12542
      9 C9          0.3982   -1.6056    1.9625 CT        1 <0>       -0.12106
     10 O1         -1.3220    1.4887    0.6858 OS        1 <0>       -0.40473
     11 O2          1.9429   -1.3550   -0.5820 OH        1 <0>       -0.60491
     12 O3         -1.9085   -1.2782    1.4596 OH        1 <0>       -0.59729
     13 H1          0.6193    2.8071   -1.7283 HC        1 <0>        0.05090
     14 H2         -0.5815    1.5392   -1.9223 HC        1 <0>        0.05090
     15 H3          2.0838    1.1164   -1.6452 HC        1 <0>        0.04373
     16 H4          1.7226    1.0990    0.0333 HC        1 <0>        0.04373
     17 H5         -1.2934   -0.5334   -0.9018 HC        1 <0>        0.06169
     18 H6         -0.5748   -2.0739   -0.5770 HC        1 <0>        0.06169
     19 H7          0.1510    2.9635    0.7104 H1        1 <0>        0.04533
     20 H8         -1.2547    3.2565   -0.2994 H1        1 <0>        0.04533
     21 H9         -1.0591    0.7698    2.5613 H1        1 <0>        0.05387
     22 H10         0.4510    1.0460    1.7184 H1        1 <0>        0.05387
     23 H11         0.4760   -1.9680   -2.6878 HC        1 <0>        0.04345
     24 H12         1.7084   -0.7522   -3.0755 HC        1 <0>        0.04345
     25 H13        -0.0072   -0.3003   -3.0528 HC        1 <0>        0.04345
     26 H14         0.2330   -1.4127    3.0199 HC        1 <0>        0.04791
     27 H15         1.4153   -1.3237    1.7003 HC        1 <0>        0.04791
     28 H16         0.2560   -2.6653    1.7637 HC        1 <0>        0.04791
     29 H17         2.7213   -1.1294   -1.1107 HO        1 <0>        0.39658
     30 H18        -1.9102   -2.2089    1.2045 HO        1 <0>        0.39432
@<TRIPOS>BOND
     1    1    2 1
     2    1    4 1
     3    2    6 1
     4    3    6 1
     5    3    7 1
     6    4   10 1
     7    5    7 1
     8    5   10 1
     9    6    8 1
    10    6   11 1
    11    7    9 1
    12    7   12 1
    13    1   13 1
    14    1   14 1
    15    2   15 1
    16    2   16 1
    17    3   17 1
    18    3   18 1
    19    4   19 1
    20    4   20 1
    21    5   21 1
    22    5   22 1
    23    8   23 1
    24    8   24 1
    25    8   25 1
    26    9   26 1
    27    9   27 1
    28    9   28 1
    29   11   29 1
    30   12   30 1
@<TRIPOS>SUBSTRUCTURE
     1 <0>         1 GROUP 0 A     ****
