@<TRIPOS>MOLECULE
AlkEthOH_r305
   20    20     1     0     0
SMALL
USER_CHARGES

@<TRIPOS>ATOM
      1 C1          1.1759    0.6233    0.9147 CT        1 <0>       -0.11576
      2 C2          0.5931   -0.7476    1.3028 CT        1 <0>       -0.11568
      3 C3          0.4250    0.5070   -0.4418 CT        1 <0>        0.13994
      4 C4         -0.5526   -0.4981    0.2818 CT        1 <0>        0.13994
      5 C5          1.2774   -0.0514   -1.5723 CT        1 <0>       -0.10831
      6 C6         -1.8128    0.0894    0.9010 CT        1 <0>       -0.10831
      7 O1         -0.1683    1.7511   -0.8853 OH        1 <0>       -0.58665
      8 O2         -0.9195   -1.6746   -0.4783 OH        1 <0>       -0.58665
      9 H1          0.8352    1.4438    1.5572 HC        1 <0>        0.05784
     10 H2          2.2675    0.6595    0.8542 HC        1 <0>        0.05784
     11 H3          1.2499   -1.5903    1.0567 HC        1 <0>        0.05784
     12 H4          0.2885   -0.8387    2.3494 HC        1 <0>        0.05784
     13 H5          0.6920   -0.1061   -2.4908 HC        1 <0>        0.05032
     14 H6          1.6278   -1.0522   -1.3177 HC        1 <0>        0.05032
     15 H7          2.1414    0.5920   -1.7427 HC        1 <0>        0.05032
     16 H8         -2.5727    0.2386    0.1331 HC        1 <0>        0.05032
     17 H9         -1.5886    1.0499    1.3662 HC        1 <0>        0.05032
     18 H10        -2.2070   -0.5869    1.6604 HC        1 <0>        0.05032
     19 H11         0.5684    2.3658   -0.9741 HO        1 <0>        0.40410
     20 H12        -1.2044   -2.3210    0.1769 HO        1 <0>        0.40410
@<TRIPOS>BOND
     1    1    2 1
     2    1    3 1
     3    2    4 1
     4    3    4 1
     5    3    5 1
     6    3    7 1
     7    4    6 1
     8    4    8 1
     9    1    9 1
    10    1   10 1
    11    2   11 1
    12    2   12 1
    13    5   13 1
    14    5   14 1
    15    5   15 1
    16    6   16 1
    17    6   17 1
    18    6   18 1
    19    7   19 1
    20    8   20 1
@<TRIPOS>SUBSTRUCTURE
     1 <0>         1 GROUP 0 A     ****
