@<TRIPOS>MOLECULE
AlkEthOH_r746
   23    23     1     0     0
SMALL
USER_CHARGES

@<TRIPOS>ATOM
      1 C1         -0.4714   -1.4303    1.3965 CT        1 <0>       -0.11005
      2 C2         -0.8039   -1.3906   -0.0925 CT        1 <0>       -0.10642
      3 C3         -0.5851   -0.0413    2.0026 CT        1 <0>        0.12890
      4 C4         -0.1136    1.0404   -0.0676 CT        1 <0>        0.15909
      5 C5          0.0069   -0.3045   -0.8213 CT        1 <0>        0.12097
      6 C6          0.7834    2.1450   -0.6224 CT        1 <0>       -0.08609
      7 C7         -0.4568   -0.1951   -2.2767 CT        1 <0>       -0.12255
      8 O1          0.2574    0.8763    1.3104 OS        1 <0>       -0.40273
      9 O2          1.3832   -0.6999   -0.8290 OH        1 <0>       -0.58033
     10 H1         -1.1380   -2.1276    1.9149 HC        1 <0>        0.05530
     11 H2          0.5538   -1.7985    1.5238 HC        1 <0>        0.05530
     12 H3         -0.5980   -2.3781   -0.5234 HC        1 <0>        0.04545
     13 H4         -1.8778   -1.1976   -0.2111 HC        1 <0>        0.04545
     14 H5         -1.6193    0.3220    1.9819 H1        1 <0>        0.04474
     15 H6         -0.2646   -0.0649    3.0490 H1        1 <0>        0.04474
     16 H7         -1.1491    1.3952   -0.1045 H1        1 <0>        0.03189
     17 H8          1.8233    1.8228   -0.5994 HC        1 <0>        0.05000
     18 H9          0.6761    3.0456   -0.0199 HC        1 <0>        0.05000
     19 H10         0.5020    2.3680   -1.6504 HC        1 <0>        0.05000
     20 H11         0.1194    0.5734   -2.7860 HC        1 <0>        0.04381
     21 H12        -1.5114    0.0677   -2.3044 HC        1 <0>        0.04381
     22 H13        -0.3095   -1.1481   -2.7788 HC        1 <0>        0.04381
     23 H14         1.4181   -1.5459   -1.2978 HO        1 <0>        0.39491
@<TRIPOS>BOND
     1    1    2 1
     2    1    3 1
     3    2    5 1
     4    3    8 1
     5    4    5 1
     6    4    6 1
     7    4    8 1
     8    5    7 1
     9    5    9 1
    10    1   10 1
    11    1   11 1
    12    2   12 1
    13    2   13 1
    14    3   14 1
    15    3   15 1
    16    4   16 1
    17    6   17 1
    18    6   18 1
    19    6   19 1
    20    7   20 1
    21    7   21 1
    22    7   22 1
    23    9   23 1
@<TRIPOS>SUBSTRUCTURE
     1 <0>         1 GROUP 0 A     ****
