@<TRIPOS>MOLECULE
AlkEthOH_r551
   30    30     1     0     0
SMALL
USER_CHARGES

@<TRIPOS>ATOM
      1 C1          0.2532    1.1752   -1.3027 CT        1 <0>       -0.13539
      2 C2         -1.6546   -0.9208    0.8807 CT        1 <0>       -0.14317
      3 C3         -0.6842    0.3364   -2.1770 CT        1 <0>        0.13947
      4 C4         -2.1725   -0.3850   -0.4534 CT        1 <0>        0.13695
      5 C5          1.2753    0.3832   -0.4540 CT        1 <0>        0.19636
      6 C6         -0.3293   -0.2868    1.3504 CT        1 <0>        0.36907
      7 C7          2.2058   -0.4188   -1.3845 CT        1 <0>       -0.10547
      8 C8          2.1627    1.3447    0.3540 CT        1 <0>       -0.10547
      9 C9          0.0907   -0.9557    2.6657 CT        1 <0>       -0.12911
     10 O1         -1.2784   -0.7599   -1.4955 OS        1 <0>       -0.40861
     11 O2          0.6987   -0.6052    0.4057 OS        1 <0>       -0.42012
     12 O3         -0.5674    1.0927    1.6106 OH        1 <0>       -0.62227
     13 H1          0.7851    1.8808   -1.9547 HC        1 <0>        0.05847
     14 H2         -0.3628    1.7997   -0.6490 HC        1 <0>        0.05847
     15 H3         -2.4312   -0.7505    1.6365 HC        1 <0>        0.05912
     16 H4         -1.5107   -2.0040    0.7746 HC        1 <0>        0.05912
     17 H5         -1.4691    0.9681   -2.6100 H1        1 <0>        0.04204
     18 H6         -0.1227   -0.0788   -3.0206 H1        1 <0>        0.04204
     19 H7         -3.1343   -0.8611   -0.6731 H1        1 <0>        0.04007
     20 H8         -2.3525    0.6950   -0.4143 H1        1 <0>        0.04007
     21 H9          2.9192   -0.9712   -0.7834 HC        1 <0>        0.04473
     22 H10         2.7307    0.2674   -2.0394 HC        1 <0>        0.04473
     23 H11         1.6111   -1.1073   -1.9742 HC        1 <0>        0.04473
     24 H12         2.8716    0.7701    0.9415 HC        1 <0>        0.04473
     25 H13         1.5391    1.9392    1.0138 HC        1 <0>        0.04473
     26 H14         2.6982    1.9971   -0.3282 HC        1 <0>        0.04473
     27 H15         1.0241   -0.5203    3.0115 HC        1 <0>        0.04950
     28 H16         0.2267   -2.0212    2.5028 HC        1 <0>        0.04950
     29 H17        -0.6812   -0.7993    3.4142 HC        1 <0>        0.04950
     30 H18        -1.2455    1.1315    2.3033 HO        1 <0>        0.41148
@<TRIPOS>BOND
     1    1    3 1
     2    1    5 1
     3    2    4 1
     4    2    6 1
     5    3   10 1
     6    4   10 1
     7    5    7 1
     8    5    8 1
     9    5   11 1
    10    6    9 1
    11    6   11 1
    12    6   12 1
    13    1   13 1
    14    1   14 1
    15    2   15 1
    16    2   16 1
    17    3   17 1
    18    3   18 1
    19    4   19 1
    20    4   20 1
    21    7   21 1
    22    7   22 1
    23    7   23 1
    24    8   24 1
    25    8   25 1
    26    8   26 1
    27    9   27 1
    28    9   28 1
    29    9   29 1
    30   12   30 1
@<TRIPOS>SUBSTRUCTURE
     1 <0>         1 GROUP 0 A     ****
