@<TRIPOS>MOLECULE
AlkEthOH_r751
   26    26     1     0     0
SMALL
USER_CHARGES

@<TRIPOS>ATOM
      1 C1         -0.6418   -0.0942    1.4998 CT        1 <0>       -0.10290
      2 C2          0.1046   -1.4262    1.4660 CT        1 <0>        0.14093
      3 C3          0.4920   -1.9556   -0.8206 CT        1 <0>        0.32929
      4 C4         -0.2052    0.3289   -0.9993 CT        1 <0>        0.15270
      5 C5         -0.2269    0.9596    0.4292 CT        1 <0>       -0.06350
      6 C6          0.0232    1.3280   -2.1347 CT        1 <0>       -0.09871
      7 C7         -1.2573    2.1077    0.5018 CT        1 <0>       -0.08521
      8 C8          1.1542    1.5367    0.8136 CT        1 <0>       -0.08521
      9 O1         -0.3139   -2.1744    0.3312 OS        1 <0>       -0.45979
     10 O2          0.8712   -0.6105   -1.0870 OS        1 <0>       -0.45145
     11 H1         -1.7123   -0.3080    1.3739 HC        1 <0>        0.04941
     12 H2         -0.5266    0.3429    2.5003 HC        1 <0>        0.04941
     13 H3          1.1935   -1.3137    1.5022 H1        1 <0>        0.05220
     14 H4         -0.1877   -2.0073    2.3474 H1        1 <0>        0.05220
     15 H5          1.4091   -2.5455   -0.7192 H2        1 <0>        0.05686
     16 H6         -0.0483   -2.3475   -1.6890 H2        1 <0>        0.05686
     17 H7         -1.1619   -0.1729   -1.2003 H1        1 <0>        0.05138
     18 H8          0.9638    1.8521   -1.9785 HC        1 <0>        0.04425
     19 H9         -0.7901    2.0503   -2.1569 HC        1 <0>        0.04425
     20 H10         0.0603    0.8004   -3.0856 HC        1 <0>        0.04425
     21 H11        -0.9977    2.8606   -0.2322 HC        1 <0>        0.03713
     22 H12        -1.2360    2.5374    1.4958 HC        1 <0>        0.03713
     23 H13        -2.2426    1.7101    0.2916 HC        1 <0>        0.03713
     24 H14         1.4470    2.2697    0.0725 HC        1 <0>        0.03713
     25 H15         1.8759    0.7300    0.8424 HC        1 <0>        0.03713
     26 H16         1.0807    2.0035    1.7879 HC        1 <0>        0.03713
@<TRIPOS>BOND
     1    1    2 1
     2    1    5 1
     3    2    9 1
     4    3    9 1
     5    3   10 1
     6    4    5 1
     7    4    6 1
     8    4   10 1
     9    5    7 1
    10    5    8 1
    11    1   11 1
    12    1   12 1
    13    2   13 1
    14    2   14 1
    15    3   15 1
    16    3   16 1
    17    4   17 1
    18    6   18 1
    19    6   19 1
    20    6   20 1
    21    7   21 1
    22    7   22 1
    23    7   23 1
    24    8   24 1
    25    8   25 1
    26    8   26 1
@<TRIPOS>SUBSTRUCTURE
     1 <0>         1 GROUP 0 A     ****
