@<TRIPOS>MOLECULE
AlkEthOH_r97
   20    20     1     0     0
SMALL
USER_CHARGES

@<TRIPOS>ATOM
      1 C1          1.1158    1.1666    0.8928 CT        1 <0>       -0.09956
      2 C2          1.4338   -0.3292    0.8591 CT        1 <0>       -0.09952
      3 C3         -0.2336    1.5705    0.3051 CT        1 <0>        0.13073
      4 C4          1.4483   -0.9605   -0.5337 CT        1 <0>        0.13073
      5 C5         -1.8308   -0.1050   -0.2915 CT        1 <0>        0.10218
      6 C6         -0.9262   -1.2677   -0.6853 CT        1 <0>        0.10218
      7 O1         -1.2679    0.6949    0.7491 OS        1 <0>       -0.42243
      8 O2          0.2606   -0.7698   -1.2957 OS        1 <0>       -0.42243
      9 H1          1.1333    1.4736    1.9466 HC        1 <0>        0.04723
     10 H2          1.9105    1.7323    0.3926 HC        1 <0>        0.04723
     11 H3          2.4185   -0.4851    1.3171 HC        1 <0>        0.04723
     12 H4          0.7202   -0.8551    1.5035 HC        1 <0>        0.04723
     13 H5         -0.4845    2.5763    0.6607 H1        1 <0>        0.04610
     14 H6         -0.1841    1.6367   -0.7880 H1        1 <0>        0.04610
     15 H7          2.2697   -0.5280   -1.1153 H1        1 <0>        0.04610
     16 H8          1.6476   -2.0357   -0.4554 H1        1 <0>        0.04610
     17 H9         -2.0702    0.5275   -1.1546 H1        1 <0>        0.05120
     18 H10        -2.7744   -0.5064    0.0923 H1        1 <0>        0.05120
     19 H11        -0.7064   -1.9148    0.1705 H1        1 <0>        0.05120
     20 H12        -1.4410   -1.8782   -1.4345 H1        1 <0>        0.05120
@<TRIPOS>BOND
     1    1    2 1
     2    1    3 1
     3    2    4 1
     4    3    7 1
     5    4    8 1
     6    5    6 1
     7    5    7 1
     8    6    8 1
     9    1    9 1
    10    1   10 1
    11    2   11 1
    12    2   12 1
    13    3   13 1
    14    3   14 1
    15    4   15 1
    16    4   16 1
    17    5   17 1
    18    5   18 1
    19    6   19 1
    20    6   20 1
@<TRIPOS>SUBSTRUCTURE
     1 <0>         1 GROUP 0 A     ****
