@<TRIPOS>MOLECULE
AlkEthOH_r737
   25    25     1     0     0
SMALL
USER_CHARGES

@<TRIPOS>ATOM
      1 C1         -0.5680   -0.6460    1.9597 CT        1 <0>       -0.14476
      2 C2         -0.2137   -1.9142    1.1867 CT        1 <0>        0.14358
      3 C3          0.2294   -1.7118   -1.1449 CT        1 <0>        0.33441
      4 C4          0.0343    0.6237    1.3500 CT        1 <0>        0.33738
      5 C5          0.2900    0.7163   -1.0591 CT        1 <0>        0.35811
      6 C6          1.3321    1.8436   -1.0902 CT        1 <0>       -0.10970
      7 C7         -0.5982    0.8628   -2.3014 CT        1 <0>       -0.10970
      8 O1         -0.7593   -1.8610   -0.1285 OS        1 <0>       -0.43896
      9 O2          1.0136   -0.5221   -1.0741 OS        1 <0>       -0.48561
     10 O3         -0.5658    0.8783    0.0805 OS        1 <0>       -0.43136
     11 O4         -0.1945    1.7304    2.2213 OH        1 <0>       -0.60357
     12 H1         -1.6604   -0.5377    1.9799 HC        1 <0>        0.06397
     13 H2         -0.2390   -0.7478    3.0006 HC        1 <0>        0.06397
     14 H3          0.8702   -2.0813    1.1779 H1        1 <0>        0.04645
     15 H4         -0.6717   -2.7726    1.6895 H1        1 <0>        0.04645
     16 H5          0.9148   -2.5658   -1.1010 H2        1 <0>        0.06287
     17 H6         -0.2677   -1.7697   -2.1181 H2        1 <0>        0.06287
     18 H7          1.1318    0.4941    1.2680 H2        1 <0>        0.06337
     19 H8          1.9763    1.7638   -0.2195 HC        1 <0>        0.05590
     20 H9          0.8252    2.8040   -1.0798 HC        1 <0>        0.05590
     21 H10         1.9296    1.7579   -1.9930 HC        1 <0>        0.05590
     22 H11        -1.3475    0.0759   -2.3061 HC        1 <0>        0.05590
     23 H12         0.0138    0.7850   -3.1958 HC        1 <0>        0.05590
     24 H13        -1.0906    1.8313   -2.2828 HC        1 <0>        0.05590
     25 H14         0.2374    1.5126    3.0615 HO        1 <0>        0.40483
@<TRIPOS>BOND
     1    1    2 1
     2    1    4 1
     3    2    8 1
     4    3    8 1
     5    3    9 1
     6    4   10 1
     7    4   11 1
     8    5    6 1
     9    5    7 1
    10    5    9 1
    11    5   10 1
    12    1   12 1
    13    1   13 1
    14    2   14 1
    15    2   15 1
    16    3   16 1
    17    3   17 1
    18    4   18 1
    19    6   19 1
    20    6   20 1
    21    6   21 1
    22    7   22 1
    23    7   23 1
    24    7   24 1
    25   11   25 1
@<TRIPOS>SUBSTRUCTURE
     1 <0>         1 GROUP 0 A     ****
