@<TRIPOS>MOLECULE
AlkEthOH_r669
   17    17     1     0     0
SMALL
USER_CHARGES

@<TRIPOS>ATOM
      1 C1         -0.9752    0.4953    0.5933 CT        1 <0>        0.11118
      2 C2          0.1084   -1.4700    0.8069 CT        1 <0>        0.32737
      3 C3          0.0869    0.4040   -0.4867 CT        1 <0>        0.12872
      4 C4         -0.4310    0.8350   -1.8523 CT        1 <0>       -0.09949
      5 C5          1.3541    1.1818   -0.1197 CT        1 <0>       -0.09949
      6 O1         -0.5412   -0.4506    1.5707 OS        1 <0>       -0.44769
      7 O2          0.3980   -0.9953   -0.5123 OS        1 <0>       -0.43962
      8 H1         -1.0701    1.4889    1.0405 H1        1 <0>        0.05920
      9 H2         -1.9598    0.1721    0.2351 H1        1 <0>        0.05920
     10 H3          1.0380   -1.7586    1.3061 H2        1 <0>        0.05451
     11 H4         -0.5459   -2.3440    0.7340 H2        1 <0>        0.05451
     12 H5          0.3626    0.7537   -2.5954 HC        1 <0>        0.04860
     13 H6         -0.7729    1.8694   -1.8126 HC        1 <0>        0.04860
     14 H7         -1.2637    0.1989   -2.1537 HC        1 <0>        0.04860
     15 H8          2.0843    1.0880   -0.9199 HC        1 <0>        0.04860
     16 H9          1.7743    0.7815    0.7997 HC        1 <0>        0.04860
     17 H10         1.1093    2.2315    0.0232 HC        1 <0>        0.04860
@<TRIPOS>BOND
     1    1    3 1
     2    1    6 1
     3    2    6 1
     4    2    7 1
     5    3    4 1
     6    3    5 1
     7    3    7 1
     8    1    8 1
     9    1    9 1
    10    2   10 1
    11    2   11 1
    12    4   12 1
    13    4   13 1
    14    4   14 1
    15    5   15 1
    16    5   16 1
    17    5   17 1
@<TRIPOS>SUBSTRUCTURE
     1 <0>         1 GROUP 0 A     ****
