@<TRIPOS>MOLECULE
AlkEthOH_r70
   23    23     1     0     0
SMALL
USER_CHARGES

@<TRIPOS>ATOM
      1 C1          0.4763   -0.7130   -1.8194 CT        1 <0>       -0.06947
      2 C2         -0.4666    0.4854   -1.6755 CT        1 <0>       -0.06947
      3 C3          1.0478   -1.3248   -0.5391 CT        1 <0>       -0.10373
      4 C4          0.1310    1.7096   -0.9722 CT        1 <0>       -0.10373
      5 C5          0.0038   -1.9203    0.4044 CT        1 <0>        0.13987
      6 C6         -0.2886    1.8611    0.4901 CT        1 <0>        0.13987
      7 C7         -0.3932   -0.0760    1.8746 CT        1 <0>        0.32198
      8 O1         -0.9332   -0.9767    0.9118 OS        1 <0>       -0.44969
      9 O2          0.4226    0.9548    1.3254 OS        1 <0>       -0.44969
     10 H1         -0.0514   -1.4971   -2.3772 HC        1 <0>        0.03879
     11 H2          1.3205   -0.4116   -2.4534 HC        1 <0>        0.03879
     12 H3         -0.7285    0.7916   -2.6977 HC        1 <0>        0.03879
     13 H4         -1.4148    0.1872   -1.2170 HC        1 <0>        0.03879
     14 H5          1.7296   -2.1334   -0.8325 HC        1 <0>        0.05075
     15 H6          1.6699   -0.5883   -0.0239 HC        1 <0>        0.05075
     16 H7          1.2236    1.7024   -1.0571 HC        1 <0>        0.05075
     17 H8         -0.2263    2.6012   -1.5030 HC        1 <0>        0.05075
     18 H9         -0.5723   -2.6802   -0.1353 H1        1 <0>        0.04168
     19 H10         0.4957   -2.4342    1.2385 H1        1 <0>        0.04168
     20 H11        -0.0115    2.8673    0.8235 H1        1 <0>        0.04168
     21 H12        -1.3754    1.7738    0.6082 H1        1 <0>        0.04168
     22 H13        -1.2273    0.3798    2.4199 H2        1 <0>        0.05959
     23 H14         0.2009   -0.6281    2.6114 H2        1 <0>        0.05959
@<TRIPOS>BOND
     1    1    2 1
     2    1    3 1
     3    2    4 1
     4    3    5 1
     5    4    6 1
     6    5    8 1
     7    6    9 1
     8    7    8 1
     9    7    9 1
    10    1   10 1
    11    1   11 1
    12    2   12 1
    13    2   13 1
    14    3   14 1
    15    3   15 1
    16    4   16 1
    17    4   17 1
    18    5   18 1
    19    5   19 1
    20    6   20 1
    21    6   21 1
    22    7   22 1
    23    7   23 1
@<TRIPOS>SUBSTRUCTURE
     1 <0>         1 GROUP 0 A     ****
