@<TRIPOS>MOLECULE
AlkEthOH_r822
   29    29     1     0     0
SMALL
USER_CHARGES

@<TRIPOS>ATOM
      1 C1         -1.5033    2.0514   -0.0427 CT        1 <0>       -0.12433
      2 C2          1.0384   -0.9576    0.7574 CT        1 <0>       -0.09838
      3 C3         -0.3578    2.2530   -1.0482 CT        1 <0>        0.13534
      4 C4         -1.1303    1.2368    1.1960 CT        1 <0>        0.14024
      5 C5          0.2837   -0.0044   -1.5313 CT        1 <0>        0.13058
      6 C6          1.0521   -1.1113   -0.7864 CT        1 <0>       -0.05574
      7 C7         -0.3346   -1.0233    1.4555 CT        1 <0>        0.14952
      8 C8          2.5123   -1.1318   -1.2619 CT        1 <0>       -0.09238
      9 C9         -0.9263   -2.4281    1.3775 CT        1 <0>       -0.09394
     10 O1          0.6545    1.2583   -0.9889 OS        1 <0>       -0.42422
     11 O2         -1.2886   -0.1430    0.8730 OS        1 <0>       -0.43174
     12 H1         -1.8687    3.0408    0.2568 HC        1 <0>        0.05419
     13 H2         -2.3336    1.5571   -0.5627 HC        1 <0>        0.05419
     14 H3          1.6795   -1.7345    1.1954 HC        1 <0>        0.04967
     15 H4          1.5181   -0.0059    1.0181 HC        1 <0>        0.04967
     16 H5         -0.7427    2.3466   -2.0705 H1        1 <0>        0.04275
     17 H6          0.1378    3.2016   -0.8128 H1        1 <0>        0.04275
     18 H7         -0.1226    1.4817    1.5474 H1        1 <0>        0.03856
     19 H8         -1.8331    1.4574    2.0063 H1        1 <0>        0.03856
     20 H9          0.5310   -0.0073   -2.5991 H1        1 <0>        0.03950
     21 H10        -0.7945   -0.1790   -1.4617 H1        1 <0>        0.03950
     22 H11         0.6119   -2.0771   -1.0612 HC        1 <0>        0.04743
     23 H12        -0.2118   -0.7700    2.5163 H1        1 <0>        0.03026
     24 H13         2.9875   -0.1889   -1.0081 HC        1 <0>        0.03604
     25 H14         2.5391   -1.2740   -2.3381 HC        1 <0>        0.03604
     26 H15         3.0389   -1.9468   -0.7743 HC        1 <0>        0.03604
     27 H16        -1.0628   -2.7147    0.3358 HC        1 <0>        0.04330
     28 H17        -1.8909   -2.4517    1.8825 HC        1 <0>        0.04330
     29 H18        -0.2554   -3.1392    1.8575 HC        1 <0>        0.04330
@<TRIPOS>BOND
     1    1    3 1
     2    1    4 1
     3    2    6 1
     4    2    7 1
     5    3   10 1
     6    4   11 1
     7    5    6 1
     8    5   10 1
     9    6    8 1
    10    7    9 1
    11    7   11 1
    12    1   12 1
    13    1   13 1
    14    2   14 1
    15    2   15 1
    16    3   16 1
    17    3   17 1
    18    4   18 1
    19    4   19 1
    20    5   20 1
    21    5   21 1
    22    6   22 1
    23    7   23 1
    24    8   24 1
    25    8   25 1
    26    8   26 1
    27    9   27 1
    28    9   28 1
    29    9   29 1
@<TRIPOS>SUBSTRUCTURE
     1 <0>         1 GROUP 0 A     ****
