@<TRIPOS>MOLECULE
AlkEthOH_r155
   11    11     1     0     0
SMALL
USER_CHARGES

@<TRIPOS>ATOM
      1 C1         -1.1910    0.2162    0.0393 CT        1 <0>        0.10767
      2 C2         -0.4863   -1.0973   -0.1625 CT        1 <0>        0.10767
      3 C3          1.0407    0.5471    0.0762 CT        1 <0>        0.33086
      4 O1         -0.1850    1.0410    0.6241 OS        1 <0>       -0.44564
      5 O2          0.8216   -0.7070   -0.5770 OS        1 <0>       -0.44564
      6 H1         -1.4866    0.6652   -0.9153 H1        1 <0>        0.05918
      7 H2         -2.0638    0.1455    0.6929 H1        1 <0>        0.05918
      8 H3         -0.3928   -1.6534    0.7766 H1        1 <0>        0.05918
      9 H4         -0.9585   -1.7334   -0.9152 H1        1 <0>        0.05918
     10 H5          1.4333    1.2654   -0.6496 H2        1 <0>        0.05418
     11 H6          1.7678    0.4171    0.8834 H2        1 <0>        0.05418
@<TRIPOS>BOND
     1    1    2 1
     2    1    4 1
     3    2    5 1
     4    3    4 1
     5    3    5 1
     6    1    6 1
     7    1    7 1
     8    2    8 1
     9    2    9 1
    10    3   10 1
    11    3   11 1
@<TRIPOS>SUBSTRUCTURE
     1 <0>         1 GROUP 0 A     ****
