@<TRIPOS>MOLECULE
AlkEthOH_r1002
   19    19     1     0     0
SMALL
USER_CHARGES

@<TRIPOS>ATOM
      1 C1          0.9045   -0.5531   -0.2677 CT        1 <0>       -0.11034
      2 C2          0.6956   -1.4750   -1.4512 CT        1 <0>        0.12565
      3 C3          1.3637   -1.5223    0.8018 CT        1 <0>       -0.09588
      4 C4          2.2486   -2.4592   -0.0148 CT        1 <0>        0.13765
      5 C5          2.0744   -0.8546    1.9659 CT        1 <0>       -0.08392
      6 C6          2.3876   -3.8480    0.5824 CT        1 <0>       -0.09521
      7 O1          1.6289   -2.5565   -1.3104 OS        1 <0>       -0.43120
      8 H1          1.6936    0.1736   -0.4971 HC        1 <0>        0.05450
      9 H2          0.0001    0.0004    0.0000 HC        1 <0>        0.05450
     10 H3         -0.3124   -1.9032   -1.4471 H1        1 <0>        0.04637
     11 H4          0.8568   -0.9715   -2.4085 H1        1 <0>        0.04637
     12 H5          0.4878   -2.0671    1.1793 HC        1 <0>        0.06099
     13 H6          3.2445   -2.0255   -0.1680 H1        1 <0>        0.04434
     14 H7          2.9496   -0.3070    1.6105 HC        1 <0>        0.03780
     15 H8          2.4012   -1.6042    2.6893 HC        1 <0>        0.03780
     16 H9          1.4033   -0.1542    2.4669 HC        1 <0>        0.03780
     17 H10         1.4027   -4.2922    0.7404 HC        1 <0>        0.04426
     18 H11         2.9058   -3.7970    1.5421 HC        1 <0>        0.04426
     19 H12         2.9582   -4.4931   -0.0890 HC        1 <0>        0.04426
@<TRIPOS>BOND
     1    1    2 1
     2    1    3 1
     3    2    7 1
     4    3    4 1
     5    3    5 1
     6    4    6 1
     7    4    7 1
     8    1    8 1
     9    1    9 1
    10    2   10 1
    11    2   11 1
    12    3   12 1
    13    4   13 1
    14    5   14 1
    15    5   15 1
    16    5   16 1
    17    6   17 1
    18    6   18 1
    19    6   19 1
@<TRIPOS>SUBSTRUCTURE
     1 <0>         1 GROUP 0 A     ****
