@<TRIPOS>MOLECULE
AlkEthOH_r629
   26    26     1     0     0
SMALL
USER_CHARGES

@<TRIPOS>ATOM
      1 C1         -1.6138    0.6366   -1.3977 CT        1 <0>       -0.10927
      2 C2         -2.1356    0.7810    0.0319 CT        1 <0>       -0.09115
      3 C3         -1.1490   -0.7709   -1.7773 CT        1 <0>        0.13149
      4 C4         -1.1677    0.3518    1.1304 CT        1 <0>        0.13159
      5 C5          1.0392   -0.5506   -0.8247 CT        1 <0>        0.10621
      6 C6          1.2019    0.0472    0.5883 CT        1 <0>        0.13675
      7 C7          1.4081   -1.0431    1.6527 CT        1 <0>       -0.10222
      8 C8          2.4499    0.9467    0.5842 CT        1 <0>       -0.10222
      9 O1         -0.1524   -1.3252   -0.9224 OS        1 <0>       -0.42124
     10 O2          0.1193    0.9265    0.9347 OS        1 <0>       -0.42068
     11 H1         -2.4091    0.9369   -2.0911 HC        1 <0>        0.05035
     12 H2         -0.8014    1.3566   -1.5468 HC        1 <0>        0.05035
     13 H3         -2.3806    1.8402    0.1820 HC        1 <0>        0.04326
     14 H4         -3.0736    0.2247    0.1442 HC        1 <0>        0.04326
     15 H5         -2.0055   -1.4532   -1.7494 H1        1 <0>        0.04407
     16 H6         -0.7720   -0.7760   -2.8068 H1        1 <0>        0.04407
     17 H7         -1.5438    0.7277    2.0886 H1        1 <0>        0.04884
     18 H8         -1.1498   -0.7366    1.2207 H1        1 <0>        0.04884
     19 H9          1.0705    0.2281   -1.5957 H1        1 <0>        0.04858
     20 H10         1.8759   -1.2279   -1.0337 H1        1 <0>        0.04858
     21 H11         1.5173   -0.5774    2.6269 HC        1 <0>        0.04509
     22 H12         2.3032   -1.6097    1.4170 HC        1 <0>        0.04509
     23 H13         0.5482   -1.7053    1.6593 HC        1 <0>        0.04509
     24 H14         2.5833    1.3784    1.5707 HC        1 <0>        0.04509
     25 H15         2.3183    1.7382   -0.1462 HC        1 <0>        0.04509
     26 H16         3.3194    0.3513    0.3253 HC        1 <0>        0.04509
@<TRIPOS>BOND
     1    1    2 1
     2    1    3 1
     3    2    4 1
     4    3    9 1
     5    4   10 1
     6    5    6 1
     7    5    9 1
     8    6    7 1
     9    6    8 1
    10    6   10 1
    11    1   11 1
    12    1   12 1
    13    2   13 1
    14    2   14 1
    15    3   15 1
    16    3   16 1
    17    4   17 1
    18    4   18 1
    19    5   19 1
    20    5   20 1
    21    7   21 1
    22    7   22 1
    23    7   23 1
    24    8   24 1
    25    8   25 1
    26    8   26 1
@<TRIPOS>SUBSTRUCTURE
     1 <0>         1 GROUP 0 A     ****
