@<TRIPOS>MOLECULE
AlkEthOH_r452
   24    24     1     0     0
SMALL
USER_CHARGES

@<TRIPOS>ATOM
      1 C1         -0.8461   -1.0373   -1.3555 CT        1 <0>       -0.05269
      2 C2          0.2667   -0.2148   -2.0130 CT        1 <0>       -0.10999
      3 C3         -1.1796   -0.7353    0.1121 CT        1 <0>       -0.12618
      4 C4          0.1136    1.3043   -1.9148 CT        1 <0>        0.14034
      5 C5          0.7264    1.5655    0.3908 CT        1 <0>        0.33190
      6 C6          0.0033   -0.6431    1.0992 CT        1 <0>        0.35807
      7 C7          0.6252   -2.0286    1.3049 CT        1 <0>       -0.11204
      8 O1         -0.2474    1.7827   -0.6252 OS        1 <0>       -0.44864
      9 O2          1.0630    0.2053    0.6483 OS        1 <0>       -0.44024
     10 O3         -0.5251   -0.1987    2.3532 OH        1 <0>       -0.62593
     11 H1         -1.7651   -0.9113   -1.9422 HC        1 <0>        0.03524
     12 H2         -0.5801   -2.0980   -1.4443 HC        1 <0>        0.03524
     13 H3          1.2333   -0.5179   -1.5960 HC        1 <0>        0.05213
     14 H4          0.3230   -0.4868   -3.0747 HC        1 <0>        0.05213
     15 H5         -1.7735    0.1858    0.1619 HC        1 <0>        0.05737
     16 H6         -1.8809   -1.5020    0.4711 HC        1 <0>        0.05737
     17 H7          1.0311    1.8033   -2.2477 H1        1 <0>        0.04361
     18 H8         -0.6838    1.6203   -2.5963 H1        1 <0>        0.04361
     19 H9          1.6470    2.0908    0.1142 H2        1 <0>        0.07217
     20 H10         0.3613    2.0277    1.3139 H2        1 <0>        0.07217
     21 H11         1.4568   -1.9545    2.0009 HC        1 <0>        0.05111
     22 H12         0.9845   -2.4110    0.3529 HC        1 <0>        0.05111
     23 H13        -0.1228   -2.7070    1.7072 HC        1 <0>        0.05111
     24 H14        -1.1740   -0.8641    2.6237 HO        1 <0>        0.41103
@<TRIPOS>BOND
     1    1    2 1
     2    1    3 1
     3    2    4 1
     4    3    6 1
     5    4    8 1
     6    5    8 1
     7    5    9 1
     8    6    7 1
     9    6    9 1
    10    6   10 1
    11    1   11 1
    12    1   12 1
    13    2   13 1
    14    2   14 1
    15    3   15 1
    16    3   16 1
    17    4   17 1
    18    4   18 1
    19    5   19 1
    20    5   20 1
    21    7   21 1
    22    7   22 1
    23    7   23 1
    24   10   24 1
@<TRIPOS>SUBSTRUCTURE
     1 <0>         1 GROUP 0 A     ****
