@<TRIPOS>MOLECULE
AlkEthOH_r1092
   24    24     1     0     0
SMALL
USER_CHARGES

@<TRIPOS>ATOM
      1 C1          1.4972    0.5949   -1.5099 CT        1 <0>       -0.14979
      2 C2          1.8988    1.2982   -0.2115 CT        1 <0>        0.13682
      3 C3          1.2003   -0.8989   -1.3587 CT        1 <0>        0.14344
      4 C4         -0.3205    1.5227    0.6840 CT        1 <0>        0.12798
      5 C5         -1.2995    0.3340    0.6844 CT        1 <0>       -0.08317
      6 C6         -1.0150   -0.6529   -0.4689 CT        1 <0>        0.34318
      7 C7         -1.2705   -0.3729    2.0487 CT        1 <0>       -0.08074
      8 O1          1.0175    1.0731    0.8843 OS        1 <0>       -0.40446
      9 O2          0.2883   -1.2098   -0.3104 OS        1 <0>       -0.43609
     10 O3         -1.9966   -1.6884   -0.4421 OH        1 <0>       -0.61174
     11 H1          0.6160    1.0947   -1.9254 HC        1 <0>        0.05101
     12 H2          2.2936    0.7282   -2.2517 HC        1 <0>        0.05101
     13 H3          2.8848    0.9359    0.0990 H1        1 <0>        0.04701
     14 H4          1.9946    2.3774   -0.3784 H1        1 <0>        0.04701
     15 H5          0.8207   -1.3106   -2.3010 H1        1 <0>        0.04696
     16 H6          2.1328   -1.4269   -1.1318 H1        1 <0>        0.04696
     17 H7         -0.4253    2.1163   -0.2313 H1        1 <0>        0.04127
     18 H8         -0.5623    2.1918    1.5176 H1        1 <0>        0.04127
     19 H9         -2.3157    0.7276    0.5519 HC        1 <0>        0.06033
     20 H10        -1.1296   -0.1356   -1.4285 H2        1 <0>        0.02537
     21 H11        -0.2789   -0.7794    2.2221 HC        1 <0>        0.04587
     22 H12        -1.9995   -1.1772    2.0524 HC        1 <0>        0.04587
     23 H13        -1.5127    0.3418    2.8292 HC        1 <0>        0.04587
     24 H14        -1.7861   -2.2849   -1.1765 HO        1 <0>        0.41876
@<TRIPOS>BOND
     1    1    2 1
     2    1    3 1
     3    2    8 1
     4    3    9 1
     5    4    5 1
     6    4    8 1
     7    5    6 1
     8    5    7 1
     9    6    9 1
    10    6   10 1
    11    1   11 1
    12    1   12 1
    13    2   13 1
    14    2   14 1
    15    3   15 1
    16    3   16 1
    17    4   17 1
    18    4   18 1
    19    5   19 1
    20    6   20 1
    21    7   21 1
    22    7   22 1
    23    7   23 1
    24   10   24 1
@<TRIPOS>SUBSTRUCTURE
     1 <0>         1 GROUP 0 A     ****
