@<TRIPOS>MOLECULE
AlkEthOH_r1032
   23    23     1     0     0
SMALL
USER_CHARGES

@<TRIPOS>ATOM
      1 C1          1.1226    0.1727    1.0126 CT        1 <0>       -0.10659
      2 C2          1.8407   -0.4965   -0.1624 CT        1 <0>        0.13323
      3 C3          0.5389    0.5640   -1.8777 CT        1 <0>        0.09434
      4 C4         -0.9779    0.5797   -1.7206 CT        1 <0>        0.10960
      5 C5         -1.2529   -0.5941    0.3447 CT        1 <0>        0.12956
      6 C6         -0.1928   -0.4973    1.4520 CT        1 <0>       -0.07622
      7 C7         -0.7619    0.2749    2.6503 CT        1 <0>       -0.09122
      8 O1          1.0650   -0.6483   -1.3463 OS        1 <0>       -0.42420
      9 O2         -1.3818    0.6449   -0.3526 OS        1 <0>       -0.41898
     10 H1          1.8164    0.1826    1.8636 HC        1 <0>        0.05174
     11 H2          0.9291    1.2260    0.7772 HC        1 <0>        0.05174
     12 H3          2.7505    0.0632   -0.4097 H1        1 <0>        0.04399
     13 H4          2.1598   -1.5008    0.1374 H1        1 <0>        0.04399
     14 H5          0.7839    0.5797   -2.9447 H1        1 <0>        0.04963
     15 H6          1.0014    1.4460   -1.4220 H1        1 <0>        0.04963
     16 H7         -1.3742    1.4746   -2.2116 H1        1 <0>        0.05288
     17 H8         -1.4403   -0.2910   -2.2002 H1        1 <0>        0.05288
     18 H9         -1.0302   -1.4270   -0.3323 H1        1 <0>        0.04923
     19 H10        -2.2311   -0.8223    0.7833 H1        1 <0>        0.04923
     20 H11         0.0276   -1.5159    1.7966 HC        1 <0>        0.04607
     21 H12        -0.9934    1.2921    2.3478 HC        1 <0>        0.03649
     22 H13        -0.0275    0.2928    3.4504 HC        1 <0>        0.03649
     23 H14        -1.6666   -0.2147    2.9991 HC        1 <0>        0.03649
@<TRIPOS>BOND
     1    1    2 1
     2    1    6 1
     3    2    8 1
     4    3    4 1
     5    3    8 1
     6    4    9 1
     7    5    6 1
     8    5    9 1
     9    6    7 1
    10    1   10 1
    11    1   11 1
    12    2   12 1
    13    2   13 1
    14    3   14 1
    15    3   15 1
    16    4   16 1
    17    4   17 1
    18    5   18 1
    19    5   19 1
    20    6   20 1
    21    7   21 1
    22    7   22 1
    23    7   23 1
@<TRIPOS>SUBSTRUCTURE
     1 <0>         1 GROUP 0 A     ****
