@<TRIPOS>MOLECULE
AlkEthOH_r331
   26    26     1     0     0
SMALL
USER_CHARGES

@<TRIPOS>ATOM
      1 C1          0.7379    2.1075   -0.3088 CT        1 <0>       -0.07307
      2 C2          0.4902    1.1997   -1.5122 CT        1 <0>       -0.07582
      3 C3          1.1562    1.3972    0.9729 CT        1 <0>       -0.10834
      4 C4         -0.8001    0.3906   -1.3773 CT        1 <0>       -0.06603
      5 C5          0.2963   -0.9593    0.5572 CT        1 <0>       -0.13818
      6 C6          0.2255    0.2805    1.4511 CT        1 <0>        0.14715
      7 C7         -0.6455   -0.9595   -0.6589 CT        1 <0>        0.15733
      8 C8         -2.0359   -1.4807   -0.2683 CT        1 <0>       -0.12532
      9 O1          0.6807   -0.0891    2.7574 OH        1 <0>       -0.60053
     10 O2         -0.1053   -1.8869   -1.6130 OH        1 <0>       -0.60198
     11 H1          1.5290    2.8206   -0.5730 HC        1 <0>        0.03958
     12 H2         -0.1578    2.7099   -0.1118 HC        1 <0>        0.03958
     13 H3          0.3877    1.8485   -2.3915 HC        1 <0>        0.04901
     14 H4          1.3537    0.5530   -1.7036 HC        1 <0>        0.04901
     15 H5          2.1728    0.9993    0.8526 HC        1 <0>        0.04557
     16 H6          1.2446    2.1489    1.7689 HC        1 <0>        0.04557
     17 H7         -1.5611    1.0055   -0.8802 HC        1 <0>        0.05162
     18 H8         -1.1759    0.1997   -2.3920 HC        1 <0>        0.05162
     19 H9          1.3336   -1.1066    0.2239 HC        1 <0>        0.05479
     20 H10         0.0986   -1.8603    1.1552 HC        1 <0>        0.05479
     21 H11        -0.7997    0.6492    1.5599 H1        1 <0>        0.07812
     22 H12        -1.9340   -2.4350    0.2400 HC        1 <0>        0.04429
     23 H13        -2.6379   -1.6086   -1.1632 HC        1 <0>        0.04429
     24 H14        -2.5164   -0.7661    0.3936 HC        1 <0>        0.04429
     25 H15         1.5946   -0.3890    2.6495 HO        1 <0>        0.39562
     26 H16        -0.0154   -2.7276   -1.1443 HO        1 <0>        0.39704
@<TRIPOS>BOND
     1    1    2 1
     2    1    3 1
     3    2    4 1
     4    3    6 1
     5    4    7 1
     6    5    6 1
     7    5    7 1
     8    6    9 1
     9    7    8 1
    10    7   10 1
    11    1   11 1
    12    1   12 1
    13    2   13 1
    14    2   14 1
    15    3   15 1
    16    3   16 1
    17    4   17 1
    18    4   18 1
    19    5   19 1
    20    5   20 1
    21    6   21 1
    22    8   22 1
    23    8   23 1
    24    8   24 1
    25    9   25 1
    26   10   26 1
@<TRIPOS>SUBSTRUCTURE
     1 <0>         1 GROUP 0 A     ****
