@<TRIPOS>MOLECULE
AlkEthOH_r1019
   28    28     1     0     0
SMALL
USER_CHARGES

@<TRIPOS>ATOM
      1 C1          0.2319    1.8565   -0.5932 CT        1 <0>       -0.10226
      2 C2         -0.1621   -1.6860   -0.6456 CT        1 <0>       -0.10226
      3 C3         -0.1535    0.1064    1.2615 CT        1 <0>       -0.07375
      4 C4         -0.3850    1.0714   -1.7475 CT        1 <0>        0.13342
      5 C5         -1.3403   -1.0965   -1.4205 CT        1 <0>        0.13342
      6 C6          0.8710    0.9977    0.5214 CT        1 <0>       -0.05582
      7 C7         -0.1567   -1.3870    0.8640 CT        1 <0>       -0.05582
      8 C8          1.5537    1.9372    1.5261 CT        1 <0>       -0.09215
      9 C9          1.0319   -2.1091    1.5151 CT        1 <0>       -0.09215
     10 O1         -1.4907    0.3095   -1.2812 OS        1 <0>       -0.42113
     11 H1          0.9934    2.5277   -1.0099 HC        1 <0>        0.04564
     12 H2         -0.5425    2.4936   -0.1460 HC        1 <0>        0.04564
     13 H3         -0.1850   -2.7743   -0.7896 HC        1 <0>        0.04564
     14 H4          0.7827   -1.3536   -1.0890 HC        1 <0>        0.04564
     15 H5          0.0268    0.1548    2.3443 HC        1 <0>        0.04883
     16 H6         -1.1642    0.5155    1.1414 HC        1 <0>        0.04883
     17 H7         -0.7770    1.7828   -2.4829 H1        1 <0>        0.04054
     18 H8          0.3648    0.4640   -2.2661 H1        1 <0>        0.04054
     19 H9         -1.2538   -1.3427   -2.4855 H1        1 <0>        0.04054
     20 H10        -2.2696   -1.5530   -1.0634 H1        1 <0>        0.04054
     21 H11         1.6628    0.3833    0.0788 HC        1 <0>        0.04469
     22 H12        -1.0662   -1.8285    1.2939 HC        1 <0>        0.04469
     23 H13         0.8055    2.5703    1.9939 HC        1 <0>        0.03279
     24 H14         2.2791    2.5558    1.0061 HC        1 <0>        0.03279
     25 H15         2.0574    1.3476    2.2864 HC        1 <0>        0.03279
     26 H16         1.9595   -1.7056    1.1201 HC        1 <0>        0.03279
     27 H17         0.9743   -3.1707    1.2936 HC        1 <0>        0.03279
     28 H18         0.9995   -1.9600    2.5903 HC        1 <0>        0.03279
@<TRIPOS>BOND
     1    1    4 1
     2    1    6 1
     3    2    5 1
     4    2    7 1
     5    3    6 1
     6    3    7 1
     7    4   10 1
     8    5   10 1
     9    6    8 1
    10    7    9 1
    11    1   11 1
    12    1   12 1
    13    2   13 1
    14    2   14 1
    15    3   15 1
    16    3   16 1
    17    4   17 1
    18    4   18 1
    19    5   19 1
    20    5   20 1
    21    6   21 1
    22    7   22 1
    23    8   23 1
    24    8   24 1
    25    8   25 1
    26    9   26 1
    27    9   27 1
    28    9   28 1
@<TRIPOS>SUBSTRUCTURE
     1 <0>         1 GROUP 0 A     ****
