@<TRIPOS>MOLECULE
AlkEthOH_r1087
   25    25     1     0     0
SMALL
USER_CHARGES

@<TRIPOS>ATOM
      1 C1         -0.9048    2.4363   -0.2268 CT        1 <0>       -0.11374
      2 C2         -0.8510    1.7374    1.1293 CT        1 <0>        0.13537
      3 C3         -1.0497    1.4395   -1.3768 CT        1 <0>        0.15525
      4 C4          0.4354   -0.1245    1.8995 CT        1 <0>        0.12022
      5 C5          0.6928   -1.1674    0.8103 CT        1 <0>        0.12956
      6 C6         -0.1737   -0.7823   -1.3996 CT        1 <0>        0.52676
      7 C7          0.8741   -2.5502    1.4237 CT        1 <0>       -0.10582
      8 O1          0.4457    1.1759    1.3146 OS        1 <0>       -0.41384
      9 O2          0.1119    0.6179   -1.4784 OS        1 <0>       -0.47895
     10 O3         -0.4393   -1.2376   -0.0654 OS        1 <0>       -0.45829
     11 O4          0.8587   -1.5450   -2.0305 OH        1 <0>       -0.61917
     12 H1         -1.7619    3.1183   -0.2464 HC        1 <0>        0.06044
     13 H2          0.0099    3.0231   -0.3710 HC        1 <0>        0.06044
     14 H3         -1.0041    2.4704    1.9282 H1        1 <0>        0.03803
     15 H4         -1.6489    0.9887    1.1986 H1        1 <0>        0.03803
     16 H5         -1.9669    0.8516   -1.2497 H1        1 <0>        0.03951
     17 H6         -1.1403    1.9893   -2.3196 H1        1 <0>        0.03951
     18 H7         -0.4980   -0.3148    2.4426 H1        1 <0>        0.05193
     19 H8          1.2535   -0.1480    2.6276 H1        1 <0>        0.05193
     20 H9          1.6005   -0.8958    0.2573 H1        1 <0>        0.07066
     21 H10        -1.0842   -0.9832   -1.9773 H3        1 <0>        0.09726
     22 H11        -0.0216   -2.8331    1.9769 HC        1 <0>        0.04523
     23 H12         1.7246   -2.5470    2.1055 HC        1 <0>        0.04523
     24 H13         1.0523   -3.2857    0.6391 HC        1 <0>        0.04523
     25 H14         0.8837   -1.2555   -2.9542 HO        1 <0>        0.43922
@<TRIPOS>BOND
     1    1    2 1
     2    1    3 1
     3    2    8 1
     4    3    9 1
     5    4    5 1
     6    4    8 1
     7    5    7 1
     8    5   10 1
     9    6    9 1
    10    6   10 1
    11    6   11 1
    12    1   12 1
    13    1   13 1
    14    2   14 1
    15    2   15 1
    16    3   16 1
    17    3   17 1
    18    4   18 1
    19    4   19 1
    20    5   20 1
    21    6   21 1
    22    7   22 1
    23    7   23 1
    24    7   24 1
    25   11   25 1
@<TRIPOS>SUBSTRUCTURE
     1 <0>         1 GROUP 0 A     ****
