@<TRIPOS>MOLECULE
AlkEthOH_r465
   24    24     1     0     0
SMALL
USER_CHARGES

@<TRIPOS>ATOM
      1 C1          0.3102    1.8201    0.8494 CT        1 <0>       -0.10407
      2 C2         -0.7820    0.8597    1.3138 CT        1 <0>       -0.10326
      3 C3         -0.6591   -0.8548   -0.5646 CT        1 <0>       -0.13130
      4 C4          0.5996    1.7584   -0.6437 CT        1 <0>        0.13175
      5 C5          0.6142   -0.5395   -1.3572 CT        1 <0>        0.34019
      6 C6         -0.6110   -0.6274    0.9552 CT        1 <0>        0.16674
      7 C7          0.6158   -1.2523    1.6224 CT        1 <0>       -0.12494
      8 O1          1.3582    0.5941   -0.9315 OS        1 <0>       -0.40696
      9 O2          0.3216   -0.4761   -2.7534 OH        1 <0>       -0.62290
     10 O3         -1.7675   -1.2821    1.5094 OH        1 <0>       -0.60781
     11 H1         -0.0030    2.8391    1.1065 HC        1 <0>        0.05279
     12 H2          1.2295    1.6167    1.4112 HC        1 <0>        0.05279
     13 H3         -0.8856    0.9549    2.4037 HC        1 <0>        0.04516
     14 H4         -1.7459    1.2092    0.9173 HC        1 <0>        0.04516
     15 H5         -1.5031   -0.2853   -0.9803 HC        1 <0>        0.06854
     16 H6         -0.9388   -1.8962   -0.7801 HC        1 <0>        0.06854
     17 H7         -0.3067    1.8272   -1.2559 H1        1 <0>        0.05659
     18 H8          1.2313    2.6135   -0.9076 H1        1 <0>        0.05659
     19 H9          1.3062   -1.4007   -1.2264 H2        1 <0>        0.06311
     20 H10         0.6931   -2.2999    1.3393 HC        1 <0>        0.04815
     21 H11         0.5219   -1.1790    2.7037 HC        1 <0>        0.04815
     22 H12         1.5136   -0.7272    1.3036 HC        1 <0>        0.04815
     23 H13        -0.0278   -1.3458   -2.9991 HO        1 <0>        0.40888
     24 H14        -1.7334   -1.1133    2.4596 HO        1 <0>        0.39996
@<TRIPOS>BOND
     1    1    2 1
     2    1    4 1
     3    2    6 1
     4    3    5 1
     5    3    6 1
     6    4    8 1
     7    5    8 1
     8    5    9 1
     9    6    7 1
    10    6   10 1
    11    1   11 1
    12    1   12 1
    13    2   13 1
    14    2   14 1
    15    3   15 1
    16    3   16 1
    17    4   17 1
    18    4   18 1
    19    5   19 1
    20    7   20 1
    21    7   21 1
    22    7   22 1
    23    9   23 1
    24   10   24 1
@<TRIPOS>SUBSTRUCTURE
     1 <0>         1 GROUP 0 A     ****
