@<TRIPOS>MOLECULE
AlkEthOH_r657
   23    23     1     0     0
SMALL
USER_CHARGES

@<TRIPOS>ATOM
      1 C1         -2.1128   -0.3208    1.0002 CT        1 <0>        0.10633
      2 C2         -0.8704   -0.7489    1.7738 CT        1 <0>        0.10975
      3 C3         -1.0810    0.8582   -0.8100 CT        1 <0>        0.08389
      4 C4          1.2287    0.0365    0.9329 CT        1 <0>        0.53552
      5 C5          0.2978    0.3816   -1.2912 CT        1 <0>        0.34489
      6 C6          0.1489   -0.4411   -2.5745 CT        1 <0>       -0.11639
      7 O1         -1.8867   -0.2483   -0.4079 OS        1 <0>       -0.40771
      8 O2          0.0876    0.3074    1.7520 OS        1 <0>       -0.45258
      9 O3          0.9440   -0.4939   -0.3624 OS        1 <0>       -0.47736
     10 O4          2.1316   -0.8355    1.6189 OH        1 <0>       -0.61973
     11 O5          1.1122    1.5047   -1.6317 OH        1 <0>       -0.62980
     12 H1         -2.8994   -1.0668    1.1533 H1        1 <0>        0.05617
     13 H2         -2.4955    0.6426    1.3571 H1        1 <0>        0.05617
     14 H3         -1.1418   -0.9127    2.8217 H1        1 <0>        0.06494
     15 H4         -0.4570   -1.6849    1.3814 H1        1 <0>        0.06494
     16 H5         -0.9972    1.6170   -0.0224 H1        1 <0>        0.06342
     17 H6         -1.6007    1.3638   -1.6334 H1        1 <0>        0.06342
     18 H7          1.7547    0.9898    0.8112 H3        1 <0>        0.12244
     19 H8          1.1281   -0.7741   -2.9079 HC        1 <0>        0.05898
     20 H9         -0.3070    0.1716   -3.3476 HC        1 <0>        0.05898
     21 H10        -0.4803   -1.3057   -2.3804 HC        1 <0>        0.05898
     22 H11         2.8773   -0.9804    1.0184 HO        1 <0>        0.43564
     23 H12         0.6455    1.9750   -2.3382 HO        1 <0>        0.41911
@<TRIPOS>BOND
     1    1    2 1
     2    1    7 1
     3    2    8 1
     4    3    5 1
     5    3    7 1
     6    4    8 1
     7    4    9 1
     8    4   10 1
     9    5    6 1
    10    5    9 1
    11    5   11 1
    12    1   12 1
    13    1   13 1
    14    2   14 1
    15    2   15 1
    16    3   16 1
    17    3   17 1
    18    4   18 1
    19    6   19 1
    20    6   20 1
    21    6   21 1
    22   10   22 1
    23   11   23 1
@<TRIPOS>SUBSTRUCTURE
     1 <0>         1 GROUP 0 A     ****
