@<TRIPOS>MOLECULE
AlkEthOH_r619
   26    26     1     0     0
SMALL
USER_CHARGES

@<TRIPOS>ATOM
      1 C1          1.2492    1.8043   -0.3181 CT        1 <0>       -0.10758
      2 C2          0.6241    0.8508   -1.3312 CT        1 <0>       -0.10469
      3 C3          0.3074    2.2669    0.7880 CT        1 <0>        0.12975
      4 C4         -0.1716    0.0319    1.5069 CT        1 <0>        0.13183
      5 C5          0.6099   -0.6084   -0.8516 CT        1 <0>        0.15317
      6 C6         -0.3576   -0.9407    0.3212 CT        1 <0>       -0.06564
      7 C7         -1.8300   -0.9149   -0.1481 CT        1 <0>       -0.08328
      8 C8         -0.0510   -2.3703    0.8215 CT        1 <0>       -0.08328
      9 O1         -0.6738    1.3224    1.1832 OS        1 <0>       -0.41312
     10 O2          0.2934   -1.4420   -1.9719 OH        1 <0>       -0.59855
     11 H1          2.1306    1.3297    0.1312 HC        1 <0>        0.04498
     12 H2          1.6282    2.6941   -0.8361 HC        1 <0>        0.04498
     13 H3         -0.3768    1.1853   -1.6270 HC        1 <0>        0.05258
     14 H4          1.2230    0.8950   -2.2512 HC        1 <0>        0.05258
     15 H5          0.8809    2.5801    1.6681 H1        1 <0>        0.04367
     16 H6         -0.2392    3.1512    0.4422 H1        1 <0>        0.04367
     17 H7         -0.7646   -0.3177    2.3608 H1        1 <0>        0.04646
     18 H8          0.8700    0.0757    1.8492 H1        1 <0>        0.04646
     19 H9          1.6337   -0.8755   -0.5493 H1        1 <0>        0.02313
     20 H10        -1.9461   -1.6002   -0.9785 HC        1 <0>        0.04115
     21 H11        -2.0815    0.0910   -0.4602 HC        1 <0>        0.04115
     22 H12        -2.4662   -1.2179    0.6741 HC        1 <0>        0.04115
     23 H13        -0.1775   -3.0636   -0.0002 HC        1 <0>        0.04115
     24 H14        -0.7363   -2.6154    1.6228 HC        1 <0>        0.04115
     25 H15         0.9692   -2.4039    1.1820 HC        1 <0>        0.04115
     26 H16         0.9882   -1.2874   -2.6277 HO        1 <0>        0.39598
@<TRIPOS>BOND
     1    1    2 1
     2    1    3 1
     3    2    5 1
     4    3    9 1
     5    4    6 1
     6    4    9 1
     7    5    6 1
     8    5   10 1
     9    6    7 1
    10    6    8 1
    11    1   11 1
    12    1   12 1
    13    2   13 1
    14    2   14 1
    15    3   15 1
    16    3   16 1
    17    4   17 1
    18    4   18 1
    19    5   19 1
    20    7   20 1
    21    7   21 1
    22    7   22 1
    23    8   23 1
    24    8   24 1
    25    8   25 1
    26   10   26 1
@<TRIPOS>SUBSTRUCTURE
     1 <0>         1 GROUP 0 A     ****
