@<TRIPOS>MOLECULE
AlkEthOH_r859
   24    24     1     0     0
SMALL
USER_CHARGES

@<TRIPOS>ATOM
      1 C1          0.2263    1.7329   -0.9171 CT        1 <0>       -0.07984
      2 C2          1.2529    1.1586    0.0601 CT        1 <0>       -0.07786
      3 C3         -1.0482    0.9104   -0.7344 CT        1 <0>       -0.07488
      4 C4          0.5133    0.0765    0.8563 CT        1 <0>       -0.06210
      5 C5         -0.5886   -0.4189   -0.1094 CT        1 <0>       -0.05423
      6 C6          1.4547   -0.9868    1.4058 CT        1 <0>       -0.08432
      7 C7         -0.0693   -1.3738   -1.1991 CT        1 <0>       -0.08163
      8 C8         -1.7412   -1.0990    0.6378 CT        1 <0>       -0.08163
      9 H1          0.0386    2.7949   -0.7280 HC        1 <0>        0.03952
     10 H2          0.5982    1.6452   -1.9442 HC        1 <0>        0.03952
     11 H3          2.1005    0.7415   -0.4965 HC        1 <0>        0.04032
     12 H4          1.6516    1.9344    0.7225 HC        1 <0>        0.04032
     13 H5         -1.7209    1.4450   -0.0512 HC        1 <0>        0.04258
     14 H6         -1.5847    0.7775   -1.6799 HC        1 <0>        0.04258
     15 H7          0.0324    0.5670    1.7152 HC        1 <0>        0.04643
     16 H8          1.9562   -1.5016    0.5859 HC        1 <0>        0.03390
     17 H9          0.8937   -1.7163    1.9903 HC        1 <0>        0.03390
     18 H10         2.2071   -0.5249    2.0456 HC        1 <0>        0.03390
     19 H11         0.2489   -2.3027   -0.7379 HC        1 <0>        0.03392
     20 H12         0.7698   -0.9119   -1.7083 HC        1 <0>        0.03392
     21 H13        -0.8649   -1.5715   -1.9095 HC        1 <0>        0.03392
     22 H14        -1.3933   -2.0339    1.0697 HC        1 <0>        0.03392
     23 H15        -2.5540   -1.3020   -0.0547 HC        1 <0>        0.03392
     24 H16        -2.0967   -0.4455    1.4303 HC        1 <0>        0.03392
@<TRIPOS>BOND
     1    1    2 1
     2    1    3 1
     3    2    4 1
     4    3    5 1
     5    4    5 1
     6    4    6 1
     7    5    7 1
     8    5    8 1
     9    1    9 1
    10    1   10 1
    11    2   11 1
    12    2   12 1
    13    3   13 1
    14    3   14 1
    15    4   15 1
    16    6   16 1
    17    6   17 1
    18    6   18 1
    19    7   19 1
    20    7   20 1
    21    7   21 1
    22    8   22 1
    23    8   23 1
    24    8   24 1
@<TRIPOS>SUBSTRUCTURE
     1 <0>         1 GROUP 0 A     ****
