@<TRIPOS>MOLECULE
AlkEthOH_r309
   17    17     1     0     0
SMALL
USER_CHARGES

@<TRIPOS>ATOM
      1 C1          1.2599    0.2818    1.0198 CT        1 <0>       -0.12322
      2 C2          0.9906   -1.1001    0.3969 CT        1 <0>       -0.12284
      3 C3          0.4256    0.9033   -0.1213 CT        1 <0>        0.14061
      4 C4         -0.2641   -0.4868   -0.2826 CT        1 <0>        0.12446
      5 C5         -0.4857   -0.9320   -1.7193 CT        1 <0>       -0.11308
      6 O1         -0.4365    1.9956    0.2422 OH        1 <0>       -0.56637
      7 O2         -1.4897   -0.6618    0.4644 OH        1 <0>       -0.56432
      8 H1          0.8217    0.4141    2.0159 HC        1 <0>        0.05821
      9 H2          2.3111    0.5805    1.0532 HC        1 <0>        0.05821
     10 H3          1.7716   -1.4307   -0.2978 HC        1 <0>        0.05779
     11 H4          0.8005   -1.9009    1.1171 HC        1 <0>        0.05779
     12 H5          1.0431    1.1844   -0.9846 H1        1 <0>        0.05376
     13 H6         -1.3821   -0.4604   -2.1251 HC        1 <0>        0.04702
     14 H7         -0.6088   -2.0153   -1.7625 HC        1 <0>        0.04702
     15 H8          0.3692   -0.6507   -2.3363 HC        1 <0>        0.04702
     16 H9          0.1434    2.6816    0.5980 HO        1 <0>        0.40320
     17 H10        -1.6054   -1.6155    0.5458 HO        1 <0>        0.39474
@<TRIPOS>BOND
     1    1    2 1
     2    1    3 1
     3    2    4 1
     4    3    4 1
     5    3    6 1
     6    4    5 1
     7    4    7 1
     8    1    8 1
     9    1    9 1
    10    2   10 1
    11    2   11 1
    12    3   12 1
    13    5   13 1
    14    5   14 1
    15    5   15 1
    16    6   16 1
    17    7   17 1
@<TRIPOS>SUBSTRUCTURE
     1 <0>         1 GROUP 0 A     ****
