@<TRIPOS>MOLECULE
AlkEthOH_r756
   14    14     1     0     0
SMALL
USER_CHARGES

@<TRIPOS>ATOM
      1 C1         -0.4095   -0.6436    1.1932 CT        1 <0>        0.07718
      2 C2          0.0693    0.6540    0.5410 CT        1 <0>        0.08075
      3 C3          0.1640   -0.1944   -0.7369 CT        1 <0>        0.13114
      4 C4         -0.6202    0.2913   -1.9384 CT        1 <0>       -0.10260
      5 O1         -0.5084   -1.3050   -0.0895 OS        1 <0>       -0.41926
      6 O2          1.3024    1.1966    1.0395 OH        1 <0>       -0.58101
      7 H1          0.3120   -1.1458    1.8451 H1        1 <0>        0.06035
      8 H2         -1.3799   -0.5821    1.6933 H1        1 <0>        0.06035
      9 H3         -0.7076    1.4263    0.5122 H1        1 <0>        0.05741
     10 H4          1.1897   -0.4768   -1.0060 H1        1 <0>        0.08151
     11 H5         -1.6367    0.5661   -1.6450 HC        1 <0>        0.04899
     12 H6         -0.6786   -0.4924   -2.6981 HC        1 <0>        0.04899
     13 H7         -0.1380    1.1672   -2.3801 HC        1 <0>        0.04899
     14 H8          1.1551    1.3694    1.9790 HO        1 <0>        0.40721
@<TRIPOS>BOND
     1    1    2 1
     2    1    5 1
     3    2    3 1
     4    2    6 1
     5    3    4 1
     6    3    5 1
     7    1    7 1
     8    1    8 1
     9    2    9 1
    10    3   10 1
    11    4   11 1
    12    4   12 1
    13    4   13 1
    14    6   14 1
@<TRIPOS>SUBSTRUCTURE
     1 <0>         1 GROUP 0 A     ****
