@<TRIPOS>MOLECULE
AlkEthOH_r7
   12    12     1     0     0
SMALL
USER_CHARGES

@<TRIPOS>ATOM
      1 C1          0.0243    1.0717   -0.4232 CT        1 <0>       -0.11292
      2 C2         -0.2176   -0.3067   -1.0370 CT        1 <0>        0.31936
      3 C3          0.8595    0.3204    0.6128 CT        1 <0>        0.31936
      4 O1          0.4037   -0.9573    0.1003 OS        1 <0>       -0.49290
      5 O2         -1.5901   -0.6783   -1.2427 OH        1 <0>       -0.58983
      6 O3          0.5203    0.5502    1.9898 OH        1 <0>       -0.58983
      7 H1          0.5826    1.7691   -1.0528 HC        1 <0>        0.08507
      8 H2         -0.8681    1.5655   -0.0282 HC        1 <0>        0.08507
      9 H3          0.3697   -0.4922   -1.9440 H2        1 <0>        0.06538
     10 H4          1.9407    0.4224    0.4621 H2        1 <0>        0.06538
     11 H5         -1.5694   -1.5631   -1.6312 HO        1 <0>        0.42293
     12 H6          1.1324    0.0098    2.5069 HO        1 <0>        0.42293
@<TRIPOS>BOND
     1    1    2 1
     2    1    3 1
     3    2    4 1
     4    2    5 1
     5    3    4 1
     6    3    6 1
     7    1    7 1
     8    1    8 1
     9    2    9 1
    10    3   10 1
    11    5   11 1
    12    6   12 1
@<TRIPOS>SUBSTRUCTURE
     1 <0>         1 GROUP 0 A     ****
