@<TRIPOS>MOLECULE
AlkEthOH_r294
   25    25     1     0     0
SMALL
USER_CHARGES

@<TRIPOS>ATOM
      1 C1         -0.6337   -0.1423   -1.3435 CT        1 <0>       -0.07235
      2 C2         -0.1960    1.2476   -0.8897 CT        1 <0>       -0.06942
      3 C3          0.0260   -0.1628    1.0316 CT        1 <0>       -0.09965
      4 C4         -0.7182   -0.9881   -0.0520 CT        1 <0>       -0.05284
      5 C5          0.7464    0.9563    0.2731 CT        1 <0>        0.13980
      6 C6         -2.1822   -1.2037    0.3576 CT        1 <0>       -0.08424
      7 C7         -0.0532   -2.3551   -0.2596 CT        1 <0>       -0.08424
      8 C8          1.0288    2.1813    1.1295 CT        1 <0>       -0.11522
      9 O1          1.9820    0.4668   -0.2469 OH        1 <0>       -0.59411
     10 H1         -1.5807   -0.0996   -1.8921 HC        1 <0>        0.04997
     11 H2          0.1176   -0.5497   -2.0317 HC        1 <0>        0.04997
     12 H3          0.2926    1.7867   -1.7078 HC        1 <0>        0.05255
     13 H4         -1.0689    1.8234   -0.5594 HC        1 <0>        0.05255
     14 H5         -0.6924    0.2681    1.7404 HC        1 <0>        0.04792
     15 H6          0.7255   -0.7814    1.6054 HC        1 <0>        0.04792
     16 H7         -2.2192   -1.7990    1.2653 HC        1 <0>        0.03465
     17 H8         -2.7071   -1.7231   -0.4387 HC        1 <0>        0.03465
     18 H9         -2.6528   -0.2411    0.5353 HC        1 <0>        0.03465
     19 H10        -0.1223   -2.9344    0.6569 HC        1 <0>        0.03465
     20 H11         0.9919   -2.2134   -0.5205 HC        1 <0>        0.03465
     21 H12        -0.5583   -2.8854   -1.0622 HC        1 <0>        0.03465
     22 H13         1.7055    1.9214    1.9447 HC        1 <0>        0.04261
     23 H14         0.0997    2.5656    1.5526 HC        1 <0>        0.04261
     24 H15         1.4903    2.9635    0.5251 HC        1 <0>        0.04261
     25 H16         2.5520    0.2939    0.5176 HO        1 <0>        0.39566
@<TRIPOS>BOND
     1    1    2 1
     2    1    4 1
     3    2    5 1
     4    3    4 1
     5    3    5 1
     6    4    6 1
     7    4    7 1
     8    5    8 1
     9    5    9 1
    10    1   10 1
    11    1   11 1
    12    2   12 1
    13    2   13 1
    14    3   14 1
    15    3   15 1
    16    6   16 1
    17    6   17 1
    18    6   18 1
    19    7   19 1
    20    7   20 1
    21    7   21 1
    22    8   22 1
    23    8   23 1
    24    8   24 1
    25    9   25 1
@<TRIPOS>SUBSTRUCTURE
     1 <0>         1 GROUP 0 A     ****
