@<TRIPOS>MOLECULE
AlkEthOH_r685
   21    21     1     0     0
SMALL
USER_CHARGES

@<TRIPOS>ATOM
      1 C1          1.5848   -0.7718    0.3712 CT        1 <0>       -0.18291
      2 C2          0.3844   -1.6355    0.7163 CT        1 <0>        0.13802
      3 C3          1.2079    0.2508   -0.6959 CT        1 <0>        0.33952
      4 C4         -1.0498    0.1768    0.0992 CT        1 <0>        0.34513
      5 C5         -1.7341   -0.4472   -1.1230 CT        1 <0>       -0.10931
      6 C6         -2.0434    1.1221    0.7808 CT        1 <0>       -0.10931
      7 O1         -0.7207   -0.8139    1.0829 OS        1 <0>       -0.43572
      8 O2          0.0648    0.9960   -0.2811 OS        1 <0>       -0.41694
      9 O3          2.3061    1.1229   -0.9503 OH        1 <0>       -0.57386
     10 H1          1.9040   -0.2337    1.2733 HC        1 <0>        0.06758
     11 H2          2.4345   -1.3821    0.0471 HC        1 <0>        0.06758
     12 H3          0.1051   -2.2892   -0.1165 H1        1 <0>        0.05290
     13 H4          0.6188   -2.2804    1.5692 H1        1 <0>        0.05290
     14 H5          0.9722   -0.2642   -1.6500 H2        1 <0>        0.03124
     15 H6         -1.0431   -1.1224   -1.6207 HC        1 <0>        0.05433
     16 H7         -2.0318    0.3381   -1.8127 HC        1 <0>        0.05433
     17 H8         -2.6133   -1.0005   -0.8038 HC        1 <0>        0.05433
     18 H9         -1.5768    1.5760    1.6519 HC        1 <0>        0.05433
     19 H10        -2.9226    0.5638    1.0936 HC        1 <0>        0.05433
     20 H11        -2.3414    1.9024    0.0845 HC        1 <0>        0.05433
     21 H12         3.0377    0.5645   -1.2565 HO        1 <0>        0.40720
@<TRIPOS>BOND
     1    1    2 1
     2    1    3 1
     3    2    7 1
     4    3    8 1
     5    3    9 1
     6    4    5 1
     7    4    6 1
     8    4    7 1
     9    4    8 1
    10    1   10 1
    11    1   11 1
    12    2   12 1
    13    2   13 1
    14    3   14 1
    15    5   15 1
    16    5   16 1
    17    5   17 1
    18    6   18 1
    19    6   19 1
    20    6   20 1
    21    9   21 1
@<TRIPOS>SUBSTRUCTURE
     1 <0>         1 GROUP 0 A     ****
