@<TRIPOS>MOLECULE
AlkEthOH_r823
   27    27     1     0     0
SMALL
USER_CHARGES

@<TRIPOS>ATOM
      1 C1          0.1499   -2.4112    0.9325 CT        1 <0>       -0.11201
      2 C2          0.1006    1.3735   -0.9245 CT        1 <0>       -0.11976
      3 C3         -0.2256   -1.2815    1.8925 CT        1 <0>        0.12934
      4 C4         -0.1141   -2.0183   -0.5206 CT        1 <0>        0.14651
      5 C5         -0.0736    1.0890    1.6328 CT        1 <0>        0.13456
      6 C6         -0.8294    1.3533    0.3127 CT        1 <0>       -0.09401
      7 C7          0.1774    0.0450   -1.6927 CT        1 <0>        0.33590
      8 C8         -1.5625    2.6945    0.4336 CT        1 <0>       -0.09189
      9 O1          0.6146   -0.1561    1.6436 OS        1 <0>       -0.40929
     10 O2          0.7647   -0.9524   -0.8696 OS        1 <0>       -0.44282
     11 O3          0.9981    0.2641   -2.8403 OH        1 <0>       -0.60091
     12 H1          1.2161   -2.6383    1.0516 HC        1 <0>        0.06362
     13 H2         -0.4257   -3.3090    1.1808 HC        1 <0>        0.06362
     14 H3         -0.2375    2.1396   -1.6352 HC        1 <0>        0.06529
     15 H4          1.1109    1.6810   -0.6238 HC        1 <0>        0.06529
     16 H5         -1.2891   -1.0366    1.7892 H1        1 <0>        0.03183
     17 H6         -0.0553   -1.6019    2.9256 H1        1 <0>        0.03183
     18 H7          0.0976   -2.8626   -1.1844 H1        1 <0>        0.03499
     19 H8         -1.1693   -1.7450   -0.6367 H1        1 <0>        0.03499
     20 H9          0.6834    1.8682    1.7799 H1        1 <0>        0.04741
     21 H10        -0.7500    1.1422    2.4952 H1        1 <0>        0.04741
     22 H11        -1.5897    0.5778    0.1660 HC        1 <0>        0.04418
     23 H12        -0.8194   -0.2353   -2.0540 H2        1 <0>        0.06903
     24 H13        -0.8390    3.4919    0.5807 HC        1 <0>        0.03788
     25 H14        -2.2416    2.6620    1.2814 HC        1 <0>        0.03788
     26 H15        -2.1279    2.8825   -0.4753 HC        1 <0>        0.03788
     27 H16         0.5637    0.9578   -3.3590 HO        1 <0>        0.41125
@<TRIPOS>BOND
     1    1    3 1
     2    1    4 1
     3    2    6 1
     4    2    7 1
     5    3    9 1
     6    4   10 1
     7    5    6 1
     8    5    9 1
     9    6    8 1
    10    7   10 1
    11    7   11 1
    12    1   12 1
    13    1   13 1
    14    2   14 1
    15    2   15 1
    16    3   16 1
    17    3   17 1
    18    4   18 1
    19    4   19 1
    20    5   20 1
    21    5   21 1
    22    6   22 1
    23    7   23 1
    24    8   24 1
    25    8   25 1
    26    8   26 1
    27   11   27 1
@<TRIPOS>SUBSTRUCTURE
     1 <0>         1 GROUP 0 A     ****
