@<TRIPOS>MOLECULE
AlkEthOH_r1127
   26    26     1     0     0
SMALL
USER_CHARGES

@<TRIPOS>ATOM
      1 C1          0.1743    1.0615   -1.8513 CT        1 <0>       -0.07111
      2 C2          0.7767    0.1820   -0.7538 CT        1 <0>       -0.07111
      3 C3          1.1506    1.4948   -2.9512 CT        1 <0>       -0.10489
      4 C4          1.3695   -1.1633   -1.1744 CT        1 <0>       -0.10489
      5 C5          1.0183    0.6962   -4.2480 CT        1 <0>        0.14073
      6 C6          0.3702   -2.1229   -1.8187 CT        1 <0>        0.14073
      7 C7          0.8702   -1.7145   -4.1252 CT        1 <0>        0.33069
      8 C8          0.1768   -1.9335   -5.4665 CT        1 <0>       -0.11840
      9 O1          1.6977   -0.5497   -4.1516 OS        1 <0>       -0.44795
     10 O2         -0.1152   -1.7055   -3.0916 OS        1 <0>       -0.44795
     11 H1         -0.7232    0.5988   -2.2746 HC        1 <0>        0.03889
     12 H2         -0.1813    1.9736   -1.3528 HC        1 <0>        0.03889
     13 H3          1.5620    0.7539   -0.2426 HC        1 <0>        0.03889
     14 H4         -0.0000    0.0003    0.0002 HC        1 <0>        0.03889
     15 H5          0.9251    2.5409   -3.1945 HC        1 <0>        0.05162
     16 H6          2.1826    1.4650   -2.5839 HC        1 <0>        0.05162
     17 H7          2.2351   -0.9992   -1.8218 HC        1 <0>        0.05162
     18 H8          1.7601   -1.6471   -0.2700 HC        1 <0>        0.05162
     19 H9         -0.0318    0.5942   -4.5392 H1        1 <0>        0.04213
     20 H10         1.5185    1.2546   -5.0470 H1        1 <0>        0.04213
     21 H11         0.8136   -3.1210   -1.9135 H1        1 <0>        0.04213
     22 H12        -0.5018   -2.2312   -1.1639 H1        1 <0>        0.04213
     23 H13         1.5433   -2.5674   -3.9755 H2        1 <0>        0.06816
     24 H14        -0.5083   -1.1111   -5.6683 HC        1 <0>        0.05181
     25 H15        -0.3846   -2.8667   -5.4454 HC        1 <0>        0.05181
     26 H16         0.9181   -1.9824   -6.2633 HC        1 <0>        0.05181
@<TRIPOS>BOND
     1    1    2 1
     2    1    3 1
     3    2    4 1
     4    3    5 1
     5    4    6 1
     6    5    9 1
     7    6   10 1
     8    7    8 1
     9    7    9 1
    10    7   10 1
    11    1   11 1
    12    1   12 1
    13    2   13 1
    14    2   14 1
    15    3   15 1
    16    3   16 1
    17    4   17 1
    18    4   18 1
    19    5   19 1
    20    5   20 1
    21    6   21 1
    22    6   22 1
    23    7   23 1
    24    8   24 1
    25    8   25 1
    26    8   26 1
@<TRIPOS>SUBSTRUCTURE
     1 <0>         1 GROUP 0 A     ****
