@<TRIPOS>MOLECULE
AlkEthOH_r828
   29    29     1     0     0
SMALL
USER_CHARGES

@<TRIPOS>ATOM
      1 C1         -0.5507    1.0325   -0.4855 CT        1 <0>       -0.09434
      2 C2          0.8002   -1.1054    1.9258 CT        1 <0>        0.10997
      3 C3          1.6684   -0.2185    1.0422 CT        1 <0>        0.09741
      4 C4         -1.2274   -1.1881    0.6625 CT        1 <0>        0.12889
      5 C5         -1.6650    0.0003   -0.2036 CT        1 <0>       -0.07638
      6 C6          0.7645    0.5009   -1.1104 CT        1 <0>        0.15618
      7 C7         -2.8478    0.7220    0.4590 CT        1 <0>       -0.08986
      8 C8          1.7414    1.6671   -1.3438 CT        1 <0>       -0.10250
      9 C9          0.4813   -0.1571   -2.4704 CT        1 <0>       -0.10250
     10 O1         -0.5784   -0.7439    1.8522 OS        1 <0>       -0.42013
     11 O2          1.4134   -0.5098   -0.3279 OS        1 <0>       -0.42707
     12 H1         -0.9643    1.7988   -1.1566 HC        1 <0>        0.05009
     13 H2         -0.3269    1.5622    0.4488 HC        1 <0>        0.05009
     14 H3          0.9200   -2.1667    1.6781 H1        1 <0>        0.05356
     15 H4          1.1057   -0.9727    2.9687 H1        1 <0>        0.05356
     16 H5          1.5237    0.8374    1.2853 H1        1 <0>        0.04958
     17 H6          2.7206   -0.4586    1.2273 H1        1 <0>        0.04958
     18 H7         -2.1082   -1.7623    0.9725 H1        1 <0>        0.04900
     19 H8         -0.6065   -1.8842    0.0870 H1        1 <0>        0.04900
     20 H9         -2.0315   -0.3974   -1.1580 HC        1 <0>        0.04672
     21 H10        -2.5306    1.1342    1.4121 HC        1 <0>        0.03667
     22 H11        -3.6567    0.0156    0.6199 HC        1 <0>        0.03667
     23 H12        -3.1891    1.5242   -0.1885 HC        1 <0>        0.03667
     24 H13         2.6574    1.2840   -1.7810 HC        1 <0>        0.04319
     25 H14         1.9608    2.1448   -0.3949 HC        1 <0>        0.04319
     26 H15         1.2864    2.3849   -2.0183 HC        1 <0>        0.04319
     27 H16         1.4117   -0.5232   -2.8932 HC        1 <0>        0.04319
     28 H17         0.0407    0.5755   -3.1393 HC        1 <0>        0.04319
     29 H18        -0.2070   -0.9852   -2.3326 HC        1 <0>        0.04319
@<TRIPOS>BOND
     1    1    5 1
     2    1    6 1
     3    2    3 1
     4    2   10 1
     5    3   11 1
     6    4    5 1
     7    4   10 1
     8    5    7 1
     9    6    8 1
    10    6    9 1
    11    6   11 1
    12    1   12 1
    13    1   13 1
    14    2   14 1
    15    2   15 1
    16    3   16 1
    17    3   17 1
    18    4   18 1
    19    4   19 1
    20    5   20 1
    21    7   21 1
    22    7   22 1
    23    7   23 1
    24    8   24 1
    25    8   25 1
    26    8   26 1
    27    9   27 1
    28    9   28 1
    29    9   29 1
@<TRIPOS>SUBSTRUCTURE
     1 <0>         1 GROUP 0 A     ****
