@<TRIPOS>MOLECULE
AlkEthOH_r953
   26    26     1     0     0
SMALL
USER_CHARGES

@<TRIPOS>ATOM
      1 C1         -0.4817   -1.7501    0.4066 CT        1 <0>       -0.07517
      2 C2         -1.1817   -0.9482    1.5099 CT        1 <0>       -0.09475
      3 C3         -0.7670   -1.2826   -1.0255 CT        1 <0>       -0.06068
      4 C4         -0.2786    0.0548    2.2279 CT        1 <0>        0.13911
      5 C5          1.1104    0.4587   -1.2868 CT        1 <0>        0.14258
      6 C6          1.2677    1.3285    0.9371 CT        1 <0>        0.32079
      7 C7         -0.3954    0.1655   -1.3955 CT        1 <0>       -0.10354
      8 C8         -0.8574    0.4551   -2.8298 CT        1 <0>       -0.09049
      9 O1         -0.0630    1.2150    1.4328 OS        1 <0>       -0.45182
     10 O2          1.6465    0.3034    0.0233 OS        1 <0>       -0.44543
     11 H1          0.5943   -1.8284    0.5908 HC        1 <0>        0.04553
     12 H2         -0.8541   -2.7821    0.4693 HC        1 <0>        0.04553
     13 H3         -2.0694   -0.4446    1.1104 HC        1 <0>        0.04667
     14 H4         -1.5318   -1.6631    2.2654 HC        1 <0>        0.04667
     15 H5         -0.2516   -1.9685   -1.7110 HC        1 <0>        0.03326
     16 H6         -1.8399   -1.4245   -1.2137 HC        1 <0>        0.03326
     17 H7         -0.7961    0.3948    3.1320 H1        1 <0>        0.04057
     18 H8          0.6602   -0.4089    2.5539 H1        1 <0>        0.04057
     19 H9          1.6601   -0.2364   -1.9324 H1        1 <0>        0.04318
     20 H10         1.3397    1.4675   -1.6517 H1        1 <0>        0.04318
     21 H11         1.3753    2.3109    0.4641 H2        1 <0>        0.06079
     22 H12         1.9668    1.3070    1.7807 H2        1 <0>        0.06079
     23 H13        -0.9547    0.8435   -0.7448 HC        1 <0>        0.07818
     24 H14        -0.3280   -0.1966   -3.5191 HC        1 <0>        0.03374
     25 H15        -0.6451    1.4917   -3.0760 HC        1 <0>        0.03374
     26 H16        -1.9258    0.2752   -2.9091 HC        1 <0>        0.03374
@<TRIPOS>BOND
     1    1    2 1
     2    1    3 1
     3    2    4 1
     4    3    7 1
     5    4    9 1
     6    5    7 1
     7    5   10 1
     8    6    9 1
     9    6   10 1
    10    7    8 1
    11    1   11 1
    12    1   12 1
    13    2   13 1
    14    2   14 1
    15    3   15 1
    16    3   16 1
    17    4   17 1
    18    4   18 1
    19    5   19 1
    20    5   20 1
    21    6   21 1
    22    6   22 1
    23    7   23 1
    24    8   24 1
    25    8   25 1
    26    8   26 1
@<TRIPOS>SUBSTRUCTURE
     1 <0>         1 GROUP 0 A     ****
