@<TRIPOS>MOLECULE
AlkEthOH_r740
   29    29     1     0     0
SMALL
USER_CHARGES

@<TRIPOS>ATOM
      1 C1          0.7841   -2.0134    1.3788 CT        1 <0>       -0.06491
      2 C2          0.3763   -1.9592   -0.0983 CT        1 <0>       -0.07749
      3 C3          0.6739   -0.7169    2.1819 CT        1 <0>       -0.11038
      4 C4         -0.9620   -1.2594   -0.3757 CT        1 <0>       -0.09576
      5 C5          1.4689    0.4543    1.6124 CT        1 <0>        0.13029
      6 C6         -0.1625    1.1853    0.0062 CT        1 <0>        0.15789
      7 C7         -0.8774    0.1847   -0.9403 CT        1 <0>        0.14129
      8 C8         -0.0189    2.5941   -0.5737 CT        1 <0>       -0.10159
      9 C9         -2.3027    0.6622   -1.2646 CT        1 <0>       -0.12824
     10 O1          1.1728    0.7290    0.2495 OS        1 <0>       -0.40118
     11 O2         -0.1527    0.1393   -2.1764 OH        1 <0>       -0.57980
     12 H1          0.1625   -2.7675    1.8789 HC        1 <0>        0.03509
     13 H2          1.8144   -2.3858    1.4385 HC        1 <0>        0.03509
     14 H3          1.1851   -1.5340   -0.7022 HC        1 <0>        0.05539
     15 H4          0.2905   -3.0008   -0.4370 HC        1 <0>        0.05539
     16 H5         -0.3825   -0.4455    2.2788 HC        1 <0>        0.04107
     17 H6          1.0244   -0.9084    3.2036 HC        1 <0>        0.04107
     18 H7         -1.4703   -1.8729   -1.1337 HC        1 <0>        0.03840
     19 H8         -1.6051   -1.2874    0.5121 HC        1 <0>        0.03840
     20 H9          1.3066    1.3581    2.2113 H1        1 <0>        0.04461
     21 H10         2.5384    0.2237    1.6657 H1        1 <0>        0.04461
     22 H11        -0.7312    1.2719    0.9355 H1        1 <0>        0.03960
     23 H12         0.5439    2.5519   -1.5037 HC        1 <0>        0.04648
     24 H13         0.5067    3.2303    0.1351 HC        1 <0>        0.04648
     25 H14        -1.0041    3.0120   -0.7692 HC        1 <0>        0.04648
     26 H15        -2.2606    1.6714   -1.6608 HC        1 <0>        0.04275
     27 H16        -2.8990    0.6501   -0.3582 HC        1 <0>        0.04275
     28 H17        -2.7436   -0.0015   -2.0011 HC        1 <0>        0.04275
     29 H18        -0.6561   -0.4448   -2.7607 HO        1 <0>        0.39347
@<TRIPOS>BOND
     1    1    2 1
     2    1    3 1
     3    2    4 1
     4    3    5 1
     5    4    7 1
     6    5   10 1
     7    6    7 1
     8    6    8 1
     9    6   10 1
    10    7    9 1
    11    7   11 1
    12    1   12 1
    13    1   13 1
    14    2   14 1
    15    2   15 1
    16    3   16 1
    17    3   17 1
    18    4   18 1
    19    4   19 1
    20    5   20 1
    21    5   21 1
    22    6   22 1
    23    8   23 1
    24    8   24 1
    25    8   25 1
    26    9   26 1
    27    9   27 1
    28    9   28 1
    29   11   29 1
@<TRIPOS>SUBSTRUCTURE
     1 <0>         1 GROUP 0 A     ****
