@<TRIPOS>MOLECULE
AlkEthOH_r379
   31    31     1     0     0
SMALL
USER_CHARGES

@<TRIPOS>ATOM
      1 C1          0.6436    2.2350    1.1793 CT        1 <0>       -0.07258
      2 C2          1.8326    1.3613    0.7823 CT        1 <0>       -0.07258
      3 C3         -0.7545    1.8061    0.7409 CT        1 <0>       -0.07445
      4 C4          1.9639    1.0578   -0.7111 CT        1 <0>       -0.07445
      5 C5         -1.3088    0.5420    1.3909 CT        1 <0>       -0.06708
      6 C6          1.5579   -0.3622   -1.1284 CT        1 <0>       -0.06708
      7 C7         -0.6937   -0.8086    1.0226 CT        1 <0>       -0.07908
      8 C8          0.0732   -0.5385   -1.4727 CT        1 <0>       -0.07908
      9 C9         -0.7825   -1.2957   -0.4373 CT        1 <0>        0.15657
     10 C10        -2.2374   -1.3457   -0.9234 CT        1 <0>       -0.12372
     11 O1         -0.2943   -2.6515   -0.4430 OH        1 <0>       -0.60693
     12 H1          0.6533    2.3541    2.2704 HC        1 <0>        0.03594
     13 H2          0.8195    3.2399    0.7720 HC        1 <0>        0.03594
     14 H3          2.7298    1.9228    1.0793 HC        1 <0>        0.03594
     15 H4          1.8753    0.4507    1.3838 HC        1 <0>        0.03594
     16 H5         -1.4302    2.6231    1.0316 HC        1 <0>        0.03704
     17 H6         -0.8318    1.7707   -0.3449 HC        1 <0>        0.03704
     18 H7          1.4558    1.8125   -1.3217 HC        1 <0>        0.03704
     19 H8          3.0309    1.1537   -0.9557 HC        1 <0>        0.03704
     20 H9         -1.2325    0.6573    2.4803 HC        1 <0>        0.04136
     21 H10        -2.3854    0.5005    1.1838 HC        1 <0>        0.04136
     22 H11         2.1187   -0.5804   -2.0483 HC        1 <0>        0.04136
     23 H12         1.9010   -1.1028   -0.3982 HC        1 <0>        0.04136
     24 H13         0.3355   -0.8779    1.3804 HC        1 <0>        0.04589
     25 H14        -1.2103   -1.5579    1.6428 HC        1 <0>        0.04589
     26 H15        -0.3784    0.4158   -1.7533 HC        1 <0>        0.04589
     27 H16         0.0486   -1.1319   -2.3994 HC        1 <0>        0.04589
     28 H17        -2.2630   -1.6920   -1.9527 HC        1 <0>        0.04162
     29 H18        -2.6727   -0.3522   -0.8643 HC        1 <0>        0.04162
     30 H19        -2.8047   -2.0281   -0.2970 HC        1 <0>        0.04162
     31 H20        -0.8786   -3.1409    0.1494 HO        1 <0>        0.39468
@<TRIPOS>BOND
     1    1    2 1
     2    1    3 1
     3    2    4 1
     4    3    5 1
     5    4    6 1
     6    5    7 1
     7    6    8 1
     8    7    9 1
     9    8    9 1
    10    9   10 1
    11    9   11 1
    12    1   12 1
    13    1   13 1
    14    2   14 1
    15    2   15 1
    16    3   16 1
    17    3   17 1
    18    4   18 1
    19    4   19 1
    20    5   20 1
    21    5   21 1
    22    6   22 1
    23    6   23 1
    24    7   24 1
    25    7   25 1
    26    8   26 1
    27    8   27 1
    28   10   28 1
    29   10   29 1
    30   10   30 1
    31   11   31 1
@<TRIPOS>SUBSTRUCTURE
     1 <0>         1 GROUP 0 A     ****
