@<TRIPOS>MOLECULE
AlkEthOH_r562
   26    26     1     0     0
SMALL
USER_CHARGES

@<TRIPOS>ATOM
      1 C1         -0.2947   -0.8346   -2.1464 CT        1 <0>       -0.11808
      2 C2          1.0315    0.5627    0.9635 CT        1 <0>       -0.13508
      3 C3         -0.0863    0.6775   -2.1159 CT        1 <0>        0.13539
      4 C4         -0.2301   -1.4867   -0.7708 CT        1 <0>        0.13587
      5 C5          0.9522    1.6004   -0.1592 CT        1 <0>        0.14060
      6 C6         -0.2764   -0.2045    1.2933 CT        1 <0>        0.15747
      7 C7         -1.2714    0.7372    1.9923 CT        1 <0>       -0.10302
      8 C8          0.0244   -1.3719    2.2479 CT        1 <0>       -0.10302
      9 O1          1.1243    1.0147   -1.4494 OS        1 <0>       -0.42474
     10 O2         -0.9735   -0.6949    0.1445 OS        1 <0>       -0.42697
     11 H1         -1.2747   -1.0310   -2.5973 HC        1 <0>        0.05094
     12 H2          0.4573   -1.3061   -2.7897 HC        1 <0>        0.05094
     13 H3          1.8245   -0.1507    0.7076 HC        1 <0>        0.05504
     14 H4          1.3671    1.0701    1.8780 HC        1 <0>        0.05504
     15 H5          0.0019    1.0366   -3.1471 H1        1 <0>        0.04682
     16 H6         -0.9534    1.1880   -1.6805 H1        1 <0>        0.04682
     17 H7         -0.6911   -2.4792   -0.8144 H1        1 <0>        0.04164
     18 H8          0.8108   -1.6332   -0.4689 H1        1 <0>        0.04164
     19 H9          0.0558    2.2266   -0.1066 H1        1 <0>        0.04702
     20 H10         1.8042    2.2791   -0.0358 H1        1 <0>        0.04702
     21 H11        -2.1820    0.1922    2.2187 HC        1 <0>        0.04311
     22 H12        -1.4985    1.5703    1.3350 HC        1 <0>        0.04311
     23 H13        -0.8292    1.1073    2.9116 HC        1 <0>        0.04311
     24 H14        -0.8973   -1.8998    2.4706 HC        1 <0>        0.04311
     25 H15         0.4529   -0.9831    3.1661 HC        1 <0>        0.04311
     26 H16         0.7280   -2.0496    1.7752 HC        1 <0>        0.04311
@<TRIPOS>BOND
     1    1    3 1
     2    1    4 1
     3    2    5 1
     4    2    6 1
     5    3    9 1
     6    4   10 1
     7    5    9 1
     8    6    7 1
     9    6    8 1
    10    6   10 1
    11    1   11 1
    12    1   12 1
    13    2   13 1
    14    2   14 1
    15    3   15 1
    16    3   16 1
    17    4   17 1
    18    4   18 1
    19    5   19 1
    20    5   20 1
    21    7   21 1
    22    7   22 1
    23    7   23 1
    24    8   24 1
    25    8   25 1
    26    8   26 1
@<TRIPOS>SUBSTRUCTURE
     1 <0>         1 GROUP 0 A     ****
