@<TRIPOS>MOLECULE
AlkEthOH_r20
   20    20     1     0     0
SMALL
USER_CHARGES

@<TRIPOS>ATOM
      1 C1          0.7937   -0.3214    1.6006 CT        1 <0>       -0.10309
      2 C2         -0.5896   -0.7745    1.1426 CT        1 <0>       -0.10835
      3 C3         -0.4955   -0.1112   -1.3194 CT        1 <0>       -0.14710
      4 C4          1.8076   -0.1753    0.4752 CT        1 <0>        0.12822
      5 C5          0.7683    0.7290   -1.4819 CT        1 <0>        0.13451
      6 C6         -1.2150    0.0580    0.0189 CT        1 <0>        0.14185
      7 O1          1.4960    0.9810   -0.2894 OS        1 <0>       -0.42048
      8 O2         -2.5654   -0.3857   -0.1466 OH        1 <0>       -0.59769
      9 H1          0.6889    0.6401    2.1184 HC        1 <0>        0.05307
     10 H2          1.1711   -1.0454    2.3321 HC        1 <0>        0.05307
     11 H3         -0.5428   -1.8269    0.8319 HC        1 <0>        0.04610
     12 H4         -1.2632   -0.7672    2.0099 HC        1 <0>        0.04610
     13 H5         -1.1715    0.1158   -2.1539 HC        1 <0>        0.05272
     14 H6         -0.2426   -1.1714   -1.4546 HC        1 <0>        0.05272
     15 H7          2.7949   -0.0031    0.9171 H1        1 <0>        0.04524
     16 H8          1.8823   -1.0755   -0.1459 H1        1 <0>        0.04524
     17 H9          1.4361    0.2693   -2.2198 H1        1 <0>        0.04688
     18 H10         0.4904    1.7096   -1.8842 H1        1 <0>        0.04688
     19 H11        -1.2571    1.1202    0.3066 H1        1 <0>        0.09014
     20 H12        -2.5151   -1.3246   -0.3772 HO        1 <0>        0.39397
@<TRIPOS>BOND
     1    1    2 1
     2    1    4 1
     3    2    6 1
     4    3    5 1
     5    3    6 1
     6    4    7 1
     7    5    7 1
     8    6    8 1
     9    1    9 1
    10    1   10 1
    11    2   11 1
    12    2   12 1
    13    3   13 1
    14    3   14 1
    15    4   15 1
    16    4   16 1
    17    5   17 1
    18    5   18 1
    19    6   19 1
    20    8   20 1
@<TRIPOS>SUBSTRUCTURE
     1 <0>         1 GROUP 0 A     ****
