@<TRIPOS>MOLECULE
AlkEthOH_r655
   26    26     1     0     0
SMALL
USER_CHARGES

@<TRIPOS>ATOM
      1 C1          1.9704    1.0623   -1.0962 CT        1 <0>        0.10979
      2 C2          2.0597   -0.3376   -0.5037 CT        1 <0>        0.11649
      3 C3         -0.3597    1.4821   -0.7417 CT        1 <0>        0.07893
      4 C4         -1.0267    0.8232    0.4746 CT        1 <0>        0.34454
      5 C5         -0.0429   -1.3921    0.0747 CT        1 <0>        0.54193
      6 C6         -1.0771    1.8096    1.6459 CT        1 <0>       -0.11538
      7 C7          0.5047   -2.5365    0.9416 CT        1 <0>       -0.10939
      8 O1          0.9822    1.8612   -0.4477 OS        1 <0>       -0.41012
      9 O2          0.9358   -1.1030   -0.9330 OS        1 <0>       -0.50011
     10 O3         -0.3224   -0.3153    0.9810 OS        1 <0>       -0.42729
     11 O4         -2.3879    0.5157    0.1652 OH        1 <0>       -0.58384
     12 O5         -1.2361   -1.8696   -0.5609 OH        1 <0>       -0.57593
     13 H1          2.9282    1.5714   -0.9487 H1        1 <0>        0.05613
     14 H2          1.7697    1.0344   -2.1734 H1        1 <0>        0.05613
     15 H3          2.9506   -0.8362   -0.8990 H1        1 <0>        0.05925
     16 H4          2.1478   -0.2985    0.5869 H1        1 <0>        0.05925
     17 H5         -0.4241    0.8520   -1.6367 H1        1 <0>        0.06379
     18 H6         -0.9067    2.3973   -1.0011 H1        1 <0>        0.06379
     19 H7         -1.5504    1.3337    2.5003 HC        1 <0>        0.05575
     20 H8         -1.6498    2.6864    1.3568 HC        1 <0>        0.05575
     21 H9         -0.0668    2.1084    1.9117 HC        1 <0>        0.05575
     22 H10        -0.2155   -2.7812    1.7182 HC        1 <0>        0.05964
     23 H11         1.4404   -2.2289    1.4013 HC        1 <0>        0.05964
     24 H12         0.6779   -3.4120    0.3211 HC        1 <0>        0.05964
     25 H13        -2.8138    1.3581   -0.0506 HO        1 <0>        0.40153
     26 H14        -0.9722   -2.6338   -1.0936 HO        1 <0>        0.42434
@<TRIPOS>BOND
     1    1    2 1
     2    1    8 1
     3    2    9 1
     4    3    4 1
     5    3    8 1
     6    4    6 1
     7    4   10 1
     8    4   11 1
     9    5    7 1
    10    5    9 1
    11    5   10 1
    12    5   12 1
    13    1   13 1
    14    1   14 1
    15    2   15 1
    16    2   16 1
    17    3   17 1
    18    3   18 1
    19    6   19 1
    20    6   20 1
    21    6   21 1
    22    7   22 1
    23    7   23 1
    24    7   24 1
    25   11   25 1
    26   12   26 1
@<TRIPOS>SUBSTRUCTURE
     1 <0>         1 GROUP 0 A     ****
