@<TRIPOS>MOLECULE
AlkEthOH_r696
   29    29     1     0     0
SMALL
USER_CHARGES

@<TRIPOS>ATOM
      1 C1         -0.9565    2.1404    0.0385 CT        1 <0>       -0.07204
      2 C2         -2.0278    1.1183   -0.3666 CT        1 <0>       -0.07204
      3 C3          0.2366    2.2292   -0.9232 CT        1 <0>       -0.08321
      4 C4         -2.3224    0.0487    0.6941 CT        1 <0>       -0.08321
      5 C5          0.9308    0.9024   -1.2237 CT        1 <0>        0.13647
      6 C6         -1.1021   -0.7146    1.2052 CT        1 <0>        0.13647
      7 C7          1.0172   -1.1110    0.1117 CT        1 <0>        0.34248
      8 C8          1.5941   -1.9393   -1.0478 CT        1 <0>       -0.10865
      9 C9          1.6694   -1.6247    1.4057 CT        1 <0>       -0.10865
     10 O1          1.3644    0.2776   -0.0185 OS        1 <0>       -0.44719
     11 O2         -0.4036   -1.3272    0.1245 OS        1 <0>       -0.44719
     12 H1         -1.4242    3.1332    0.0724 HC        1 <0>        0.04079
     13 H2         -0.5915    1.9649    1.0550 HC        1 <0>        0.04079
     14 H3         -2.9647    1.6592   -0.5546 HC        1 <0>        0.04079
     15 H4         -1.7868    0.6319   -1.3166 HC        1 <0>        0.04079
     16 H5         -0.0933    2.6766   -1.8685 HC        1 <0>        0.04352
     17 H6          0.9665    2.9193   -0.4819 HC        1 <0>        0.04352
     18 H7         -2.8288    0.5155    1.5475 HC        1 <0>        0.04352
     19 H8         -3.0299   -0.6660    0.2559 HC        1 <0>        0.04352
     20 H9          0.2662    0.2646   -1.8128 H1        1 <0>        0.03911
     21 H10         1.8196    1.0908   -1.8357 H1        1 <0>        0.03911
     22 H11        -0.4667   -0.0442    1.7901 H1        1 <0>        0.03911
     23 H12        -1.4319   -1.5127    1.8792 H1        1 <0>        0.03911
     24 H13         1.1551   -1.6038   -1.9820 HC        1 <0>        0.05218
     25 H14         1.3605   -2.9877   -0.8911 HC        1 <0>        0.05218
     26 H15         2.6709   -1.8069   -1.0827 HC        1 <0>        0.05218
     27 H16         1.2848   -1.0610    2.2498 HC        1 <0>        0.05218
     28 H17         2.7451   -1.4959    1.3411 HC        1 <0>        0.05218
     29 H18         1.4349   -2.6768    1.5327 HC        1 <0>        0.05218
@<TRIPOS>BOND
     1    1    2 1
     2    1    3 1
     3    2    4 1
     4    3    5 1
     5    4    6 1
     6    5   10 1
     7    6   11 1
     8    7    8 1
     9    7    9 1
    10    7   10 1
    11    7   11 1
    12    1   12 1
    13    1   13 1
    14    2   14 1
    15    2   15 1
    16    3   16 1
    17    3   17 1
    18    4   18 1
    19    4   19 1
    20    5   20 1
    21    5   21 1
    22    6   22 1
    23    6   23 1
    24    8   24 1
    25    8   25 1
    26    8   26 1
    27    9   27 1
    28    9   28 1
    29    9   29 1
@<TRIPOS>SUBSTRUCTURE
     1 <0>         1 GROUP 0 A     ****
