@<TRIPOS>MOLECULE
AlkEthOH_r941
   29    29     1     0     0
SMALL
USER_CHARGES

@<TRIPOS>ATOM
      1 C1         -0.6130    0.5396   -2.0025 CT        1 <0>       -0.07466
      2 C2         -1.8909    0.0473   -1.3106 CT        1 <0>       -0.11078
      3 C3          0.5450   -0.4707   -2.0244 CT        1 <0>       -0.07003
      4 C4          1.3965    0.0289    0.3575 CT        1 <0>       -0.10708
      5 C5         -2.2924    0.9053   -0.1055 CT        1 <0>        0.12872
      6 C6         -0.8702    0.0146    1.5987 CT        1 <0>        0.13036
      7 C7          0.9941   -1.0519   -0.6662 CT        1 <0>       -0.05682
      8 C8          0.6540   -0.0881    1.7001 CT        1 <0>        0.13577
      9 C9          2.1636   -2.0195   -0.8927 CT        1 <0>       -0.09338
     10 O1         -1.2093    1.1378    0.7889 OS        1 <0>       -0.40976
     11 O2          1.1226    0.9566    2.5567 OH        1 <0>       -0.59499
     12 H1         -0.8612    0.7659   -3.0481 HC        1 <0>        0.04687
     13 H2         -0.2736    1.4917   -1.5805 HC        1 <0>        0.04687
     14 H3         -2.7195    0.0704   -2.0295 HC        1 <0>        0.04264
     15 H4         -1.7927   -1.0003   -1.0107 HC        1 <0>        0.04264
     16 H5          0.2546   -1.3038   -2.6784 HC        1 <0>        0.03723
     17 H6          1.4027    0.0112   -2.5121 HC        1 <0>        0.03723
     18 H7          2.4742   -0.0222    0.5658 HC        1 <0>        0.05459
     19 H8          1.2606    1.0392   -0.0451 HC        1 <0>        0.05459
     20 H9         -2.6200    1.8872   -0.4645 H1        1 <0>        0.04595
     21 H10        -3.1392    0.4608    0.4305 H1        1 <0>        0.04595
     22 H11        -1.2906   -0.9149    1.2025 H1        1 <0>        0.04589
     23 H12        -1.3111    0.1815    2.5875 H1        1 <0>        0.04589
     24 H13         0.1780   -1.6629   -0.2689 HC        1 <0>        0.04508
     25 H14         0.9173   -1.0401    2.1853 H1        1 <0>        0.03004
     26 H15         3.0138   -1.4725   -1.2900 HC        1 <0>        0.03409
     27 H16         1.8649   -2.7884   -1.5994 HC        1 <0>        0.03409
     28 H17         2.4386   -2.4815    0.0512 HC        1 <0>        0.03409
     29 H18         2.0750    0.8156    2.6606 HO        1 <0>        0.39892
@<TRIPOS>BOND
     1    1    2 1
     2    1    3 1
     3    2    5 1
     4    3    7 1
     5    4    7 1
     6    4    8 1
     7    5   10 1
     8    6    8 1
     9    6   10 1
    10    7    9 1
    11    8   11 1
    12    1   12 1
    13    1   13 1
    14    2   14 1
    15    2   15 1
    16    3   16 1
    17    3   17 1
    18    4   18 1
    19    4   19 1
    20    5   20 1
    21    5   21 1
    22    6   22 1
    23    6   23 1
    24    7   24 1
    25    8   25 1
    26    9   26 1
    27    9   27 1
    28    9   28 1
    29   11   29 1
@<TRIPOS>SUBSTRUCTURE
     1 <0>         1 GROUP 0 A     ****
