@<TRIPOS>MOLECULE
AlkEthOH_r1035
   29    29     1     0     0
SMALL
USER_CHARGES

@<TRIPOS>ATOM
      1 C1         -0.6947   -1.3270    1.1306 CT        1 <0>       -0.10472
      2 C2         -0.4185   -0.0634   -1.1542 CT        1 <0>       -0.09386
      3 C3         -1.1304   -0.0965    1.9306 CT        1 <0>        0.14292
      4 C4          0.6309    1.3896    1.2748 CT        1 <0>        0.32640
      5 C5         -0.9661   -1.2907   -0.3870 CT        1 <0>       -0.04445
      6 C6          1.0567    0.3347   -0.8960 CT        1 <0>        0.16534
      7 C7         -2.4686   -1.4305   -0.6649 CT        1 <0>       -0.09450
      8 C8          1.9919   -0.7671   -1.4210 CT        1 <0>       -0.10445
      9 C9          1.3844    1.6356   -1.6463 CT        1 <0>       -0.10445
     10 O1         -0.7704    1.1463    1.3408 OS        1 <0>       -0.44881
     11 O2          1.3848    0.4690    0.4925 OS        1 <0>       -0.45032
     12 H1          0.3742   -1.5043    1.2938 HC        1 <0>        0.05167
     13 H2         -1.1857   -2.2078    1.5651 HC        1 <0>        0.05167
     14 H3         -0.5419   -0.2557   -2.2299 HC        1 <0>        0.05208
     15 H4         -1.0688    0.7983   -0.9589 HC        1 <0>        0.05208
     16 H5         -2.2222   -0.0966    2.0186 H1        1 <0>        0.04253
     17 H6         -0.7339   -0.1468    2.9515 H1        1 <0>        0.04253
     18 H7          0.7836    2.4056    0.8989 H2        1 <0>        0.05908
     19 H8          1.0388    1.3713    2.2916 H2        1 <0>        0.05908
     20 H9         -0.4879   -2.1836   -0.8113 HC        1 <0>        0.03967
     21 H10        -2.9929   -0.5678   -0.2634 HC        1 <0>        0.03367
     22 H11        -2.8419   -2.3340   -0.1911 HC        1 <0>        0.03367
     23 H12        -2.6346   -1.4885   -1.7370 HC        1 <0>        0.03367
     24 H13         3.0225   -0.4809   -1.2366 HC        1 <0>        0.04325
     25 H14         1.8339   -0.8937   -2.4872 HC        1 <0>        0.04325
     26 H15         1.7741   -1.6977   -0.9068 HC        1 <0>        0.04325
     27 H16         2.4188    1.9070   -1.4601 HC        1 <0>        0.04325
     28 H17         0.7310    2.4277   -1.2943 HC        1 <0>        0.04325
     29 H18         1.2333    1.4844   -2.7105 HC        1 <0>        0.04325
@<TRIPOS>BOND
     1    1    3 1
     2    1    5 1
     3    2    5 1
     4    2    6 1
     5    3   10 1
     6    4   10 1
     7    4   11 1
     8    5    7 1
     9    6    8 1
    10    6    9 1
    11    6   11 1
    12    1   12 1
    13    1   13 1
    14    2   14 1
    15    2   15 1
    16    3   16 1
    17    3   17 1
    18    4   18 1
    19    4   19 1
    20    5   20 1
    21    7   21 1
    22    7   22 1
    23    7   23 1
    24    8   24 1
    25    8   25 1
    26    8   26 1
    27    9   27 1
    28    9   28 1
    29    9   29 1
@<TRIPOS>SUBSTRUCTURE
     1 <0>         1 GROUP 0 A     ****
