@<TRIPOS>MOLECULE
AlkEthOH_r765
   26    26     1     0     0
SMALL
USER_CHARGES

@<TRIPOS>ATOM
      1 C1          0.3575    2.0957   -1.0974 CT        1 <0>       -0.09866
      2 C2          0.7433    2.0017    0.3801 CT        1 <0>       -0.09862
      3 C3         -0.1598    0.8045   -1.7259 CT        1 <0>        0.13368
      4 C4         -0.3828    1.5587    1.3140 CT        1 <0>        0.13368
      5 C5         -0.0218   -1.2864   -0.5435 CT        1 <0>        0.12119
      6 C6         -0.1620   -0.8066    0.9181 CT        1 <0>        0.12119
      7 C7          0.8154   -2.5583   -0.6575 CT        1 <0>       -0.09839
      8 C8         -0.8231   -1.8471    1.8183 CT        1 <0>       -0.09839
      9 O1          0.6525   -0.3034   -1.3459 OS        1 <0>       -0.42566
     10 O2         -1.0193    0.3413    0.9397 OS        1 <0>       -0.42566
     11 H1         -0.3832    2.8903   -1.2447 HC        1 <0>        0.04661
     12 H2          1.2574    2.4048   -1.6448 HC        1 <0>        0.04661
     13 H3          1.6000    1.3249    0.4765 HC        1 <0>        0.04661
     14 H4          1.1012    2.9842    0.7117 HC        1 <0>        0.04661
     15 H5         -1.2188    0.6469   -1.4929 H1        1 <0>        0.04520
     16 H6         -0.0980    0.8946   -2.8162 H1        1 <0>        0.04520
     17 H7         -0.0104    1.4657    2.3409 H1        1 <0>        0.04520
     18 H8         -1.1607    2.3297    1.3274 H1        1 <0>        0.04520
     19 H9         -1.0086   -1.4811   -0.9833 H1        1 <0>        0.05085
     20 H10         0.8223   -0.5636    1.3357 H1        1 <0>        0.05085
     21 H11         1.8016   -2.3912   -0.2272 HC        1 <0>        0.04445
     22 H12         0.9258   -2.8352   -1.7048 HC        1 <0>        0.04445
     23 H13         0.3265   -3.3715   -0.1233 HC        1 <0>        0.04445
     24 H14        -1.8049   -2.1066    1.4248 HC        1 <0>        0.04445
     25 H15        -0.9375   -1.4465    2.8245 HC        1 <0>        0.04445
     26 H16        -0.2077   -2.7446    1.8601 HC        1 <0>        0.04445
@<TRIPOS>BOND
     1    1    2 1
     2    1    3 1
     3    2    4 1
     4    3    9 1
     5    4   10 1
     6    5    6 1
     7    5    7 1
     8    5    9 1
     9    6    8 1
    10    6   10 1
    11    1   11 1
    12    1   12 1
    13    2   13 1
    14    2   14 1
    15    3   15 1
    16    3   16 1
    17    4   17 1
    18    4   18 1
    19    5   19 1
    20    6   20 1
    21    7   21 1
    22    7   22 1
    23    7   23 1
    24    8   24 1
    25    8   25 1
    26    8   26 1
@<TRIPOS>SUBSTRUCTURE
     1 <0>         1 GROUP 0 A     ****
