@<TRIPOS>MOLECULE
AlkEthOH_r497
   29    29     1     0     0
SMALL
USER_CHARGES

@<TRIPOS>ATOM
      1 C1          0.9553    0.8806    1.5977 CT        1 <0>       -0.07088
      2 C2         -0.2391    1.4395    0.7978 CT        1 <0>       -0.09362
      3 C3          0.7298   -1.5378   -1.7153 CT        1 <0>       -0.12432
      4 C4          1.7252   -0.2508    0.9191 CT        1 <0>        0.12451
      5 C5          2.0923   -0.9301   -1.3454 CT        1 <0>        0.13422
      6 C6         -0.4553   -0.5871   -1.5411 CT        1 <0>        0.13993
      7 C7         -1.3906    0.4554    0.4722 CT        1 <0>        0.15904
      8 C8         -2.4854    1.1629   -0.3431 CT        1 <0>       -0.10409
      9 C9         -2.0252   -0.0580    1.7752 CT        1 <0>       -0.10409
     10 O1          2.0168    0.1418   -0.4160 OS        1 <0>       -0.42484
     11 O2         -0.9238   -0.7165   -0.2010 OS        1 <0>       -0.43028
     12 H1          1.6502    1.7173    1.7486 HC        1 <0>        0.04398
     13 H2          0.6378    0.5625    2.5964 HC        1 <0>        0.04398
     14 H3         -0.6501    2.2861    1.3645 HC        1 <0>        0.04972
     15 H4          0.1478    1.8736   -0.1322 HC        1 <0>        0.04972
     16 H5          0.7846   -1.8804   -2.7555 HC        1 <0>        0.05451
     17 H6          0.5714   -2.4328   -1.1004 HC        1 <0>        0.05451
     18 H7          2.6720   -0.4235    1.4423 H1        1 <0>        0.03987
     19 H8          1.1576   -1.1853    0.9643 H1        1 <0>        0.03987
     20 H9          2.7837   -1.7012   -0.9859 H1        1 <0>        0.04244
     21 H10         2.5364   -0.5102   -2.2550 H1        1 <0>        0.04244
     22 H11        -0.1789    0.4372   -1.8080 H1        1 <0>        0.03877
     23 H12        -1.2734   -0.9006   -2.1980 H1        1 <0>        0.03877
     24 H13        -3.2821    0.4589   -0.5612 HC        1 <0>        0.04264
     25 H14        -2.0601    1.5313   -1.2712 HC        1 <0>        0.04264
     26 H15        -2.8806    1.9941    0.2323 HC        1 <0>        0.04264
     27 H16        -2.8298   -0.7459    1.5357 HC        1 <0>        0.04264
     28 H17        -2.4193    0.7824    2.3377 HC        1 <0>        0.04264
     29 H18        -1.2709   -0.5698    2.3643 HC        1 <0>        0.04264
@<TRIPOS>BOND
     1    1    2 1
     2    1    4 1
     3    2    7 1
     4    3    5 1
     5    3    6 1
     6    4   10 1
     7    5   10 1
     8    6   11 1
     9    7    8 1
    10    7    9 1
    11    7   11 1
    12    1   12 1
    13    1   13 1
    14    2   14 1
    15    2   15 1
    16    3   16 1
    17    3   17 1
    18    4   18 1
    19    4   19 1
    20    5   20 1
    21    5   21 1
    22    6   22 1
    23    6   23 1
    24    8   24 1
    25    8   25 1
    26    8   26 1
    27    9   27 1
    28    9   28 1
    29    9   29 1
@<TRIPOS>SUBSTRUCTURE
     1 <0>         1 GROUP 0 A     ****
