@<TRIPOS>MOLECULE
AlkEthOH_r326
   20    20     1     0     0
SMALL
USER_CHARGES

@<TRIPOS>ATOM
      1 C1          0.3617   -1.8177    0.0492 CT        1 <0>       -0.07209
      2 C2          0.0881   -1.0448    1.3433 CT        1 <0>       -0.10986
      3 C3          0.2913   -0.8012   -1.0944 CT        1 <0>       -0.10424
      4 C4          0.1176    0.4320    0.9513 CT        1 <0>        0.14549
      5 C5         -0.3956    0.4257   -0.4916 CT        1 <0>        0.15063
      6 C6         -0.1120    1.6983   -1.2781 CT        1 <0>       -0.10807
      7 O1          1.4546    0.9127    1.0116 OH        1 <0>       -0.59950
      8 O2         -1.8057    0.1950   -0.4913 OH        1 <0>       -0.60189
      9 H1          1.3459   -2.2980    0.0740 HC        1 <0>        0.04317
     10 H2         -0.3837   -2.6097   -0.0831 HC        1 <0>        0.04317
     11 H3         -0.9054   -1.3162    1.7193 HC        1 <0>        0.05161
     12 H4          0.8249   -1.2933    2.1139 HC        1 <0>        0.05161
     13 H5          1.3095   -0.5620   -1.4245 HC        1 <0>        0.05204
     14 H6         -0.2566   -1.2155   -1.9474 HC        1 <0>        0.05204
     15 H7         -0.5055    1.0275    1.6264 H1        1 <0>        0.05846
     16 H8         -0.6194    2.5450   -0.8149 HC        1 <0>        0.04783
     17 H9         -0.4680    1.5914   -2.3032 HC        1 <0>        0.04783
     18 H10         0.9603    1.8959   -1.2955 HC        1 <0>        0.04783
     19 H11         1.7537    0.7930    1.9273 HO        1 <0>        0.40271
     20 H12        -2.0601    0.0633   -1.4165 HO        1 <0>        0.40123
@<TRIPOS>BOND
     1    1    2 1
     2    1    3 1
     3    2    4 1
     4    3    5 1
     5    4    5 1
     6    4    7 1
     7    5    6 1
     8    5    8 1
     9    1    9 1
    10    1   10 1
    11    2   11 1
    12    2   12 1
    13    3   13 1
    14    3   14 1
    15    4   15 1
    16    6   16 1
    17    6   17 1
    18    6   18 1
    19    7   19 1
    20    8   20 1
@<TRIPOS>SUBSTRUCTURE
     1 <0>         1 GROUP 0 A     ****
