@<TRIPOS>MOLECULE
AlkEthOH_r57
   26    26     1     0     0
SMALL
USER_CHARGES

@<TRIPOS>ATOM
      1 C1          1.4472   -0.7249   -1.2256 CT        1 <0>       -0.08000
      2 C2          1.6380   -1.5207    0.0651 CT        1 <0>       -0.06946
      3 C3          1.8284    0.7581   -1.1846 CT        1 <0>       -0.06474
      4 C4          0.7663   -1.2016    1.2812 CT        1 <0>       -0.06867
      5 C5          0.9427    1.7209   -0.3882 CT        1 <0>       -0.11085
      6 C6         -0.7515   -1.2559    1.0743 CT        1 <0>       -0.11510
      7 C7         -0.5339    1.7114   -0.7783 CT        1 <0>        0.13380
      8 C8         -1.3926    0.1020    0.7698 CT        1 <0>        0.33217
      9 O1         -1.1450    0.4433   -0.5869 OS        1 <0>       -0.39887
     10 O2         -2.7995   -0.0325    0.9732 OH        1 <0>       -0.60397
     11 H1          2.1092   -1.1896   -1.9704 HC        1 <0>        0.05168
     12 H2          0.4442   -0.8759   -1.6318 HC        1 <0>        0.05168
     13 H3          1.4852   -2.5802   -0.1811 HC        1 <0>        0.03382
     14 H4          2.6889   -1.4399    0.3718 HC        1 <0>        0.03382
     15 H5          2.8566    0.8479   -0.8119 HC        1 <0>        0.03440
     16 H6          1.8553    1.1175   -2.2220 HC        1 <0>        0.03440
     17 H7          1.0123   -1.9640    2.0340 HC        1 <0>        0.03644
     18 H8          1.0673   -0.2573    1.7421 HC        1 <0>        0.03644
     19 H9          1.0567    1.5287    0.6800 HC        1 <0>        0.04217
     20 H10         1.3266    2.7371   -0.5448 HC        1 <0>        0.04217
     21 H11        -1.0034   -1.9836    0.2929 HC        1 <0>        0.05648
     22 H12        -1.2019   -1.6394    1.9997 HC        1 <0>        0.05648
     23 H13        -1.0881    2.4783   -0.2242 H1        1 <0>        0.05131
     24 H14        -0.6269    1.9566   -1.8419 H1        1 <0>        0.05131
     25 H15        -1.0292    0.8602    1.4738 H2        1 <0>        0.03014
     26 H16        -2.9186   -0.2883    1.9002 HO        1 <0>        0.40295
@<TRIPOS>BOND
     1    1    2 1
     2    1    3 1
     3    2    4 1
     4    3    5 1
     5    4    6 1
     6    5    7 1
     7    6    8 1
     8    7    9 1
     9    8    9 1
    10    8   10 1
    11    1   11 1
    12    1   12 1
    13    2   13 1
    14    2   14 1
    15    3   15 1
    16    3   16 1
    17    4   17 1
    18    4   18 1
    19    5   19 1
    20    5   20 1
    21    6   21 1
    22    6   22 1
    23    7   23 1
    24    7   24 1
    25    8   25 1
    26   10   26 1
@<TRIPOS>SUBSTRUCTURE
     1 <0>         1 GROUP 0 A     ****
