@<TRIPOS>MOLECULE
AlkEthOH_r744
   23    23     1     0     0
SMALL
USER_CHARGES

@<TRIPOS>ATOM
      1 C1          0.0758    0.2443    2.0206 CT        1 <0>       -0.06587
      2 C2         -1.3971    0.2482    1.6229 CT        1 <0>       -0.11279
      3 C3          0.8937   -0.7660    1.2189 CT        1 <0>       -0.11153
      4 C4         -1.7127    1.0843    0.3869 CT        1 <0>        0.13250
      5 C5          1.1162   -0.4222   -0.2578 CT        1 <0>        0.11983
      6 C6         -0.1697   -0.0905   -1.0278 CT        1 <0>        0.14914
      7 C7          0.0981    0.0745   -2.5239 CT        1 <0>       -0.09199
      8 O1         -0.6656    1.1651   -0.5677 OS        1 <0>       -0.41884
      9 O2          1.7614   -1.5376   -0.8721 OH        1 <0>       -0.60204
     10 H1          0.5088    1.2481    1.9424 HC        1 <0>        0.04774
     11 H2          0.1393   -0.0434    3.0775 HC        1 <0>        0.04774
     12 H3         -1.7332   -0.7834    1.4579 HC        1 <0>        0.04496
     13 H4         -2.0039    0.6254    2.4554 HC        1 <0>        0.04496
     14 H5          1.8778   -0.8773    1.6940 HC        1 <0>        0.04339
     15 H6          0.4322   -1.7598    1.2972 HC        1 <0>        0.04339
     16 H7         -2.6226    0.7169   -0.1018 H1        1 <0>        0.04462
     17 H8         -1.9212    2.1135    0.7000 H1        1 <0>        0.04462
     18 H9          1.8006    0.4342   -0.3086 H1        1 <0>        0.04651
     19 H10        -0.9130   -0.8868   -0.9143 H1        1 <0>        0.05106
     20 H11         0.8348    0.8600   -2.6814 HC        1 <0>        0.04763
     21 H12        -0.8245    0.3420   -3.0355 HC        1 <0>        0.04763
     22 H13         0.4774   -0.8592   -2.9350 HC        1 <0>        0.04763
     23 H14         2.5999   -1.6625   -0.4024 HO        1 <0>        0.39971
@<TRIPOS>BOND
     1    1    2 1
     2    1    3 1
     3    2    4 1
     4    3    5 1
     5    4    8 1
     6    5    6 1
     7    5    9 1
     8    6    7 1
     9    6    8 1
    10    1   10 1
    11    1   11 1
    12    2   12 1
    13    2   13 1
    14    3   14 1
    15    3   15 1
    16    4   16 1
    17    4   17 1
    18    5   18 1
    19    6   19 1
    20    7   20 1
    21    7   21 1
    22    7   22 1
    23    9   23 1
@<TRIPOS>SUBSTRUCTURE
     1 <0>         1 GROUP 0 A     ****
