@<TRIPOS>MOLECULE
AlkEthOH_r321
   25    25     1     0     0
SMALL
USER_CHARGES

@<TRIPOS>ATOM
      1 C1          1.5548    0.7017    1.0808 CT        1 <0>       -0.07466
      2 C2          0.9520   -0.7032    1.1348 CT        1 <0>       -0.07400
      3 C3          0.8078    1.4602   -0.0216 CT        1 <0>       -0.10646
      4 C4         -0.4040   -0.5998    0.4078 CT        1 <0>       -0.04026
      5 C5         -0.0663    0.4108   -0.7229 CT        1 <0>        0.15002
      6 C6         -1.4812   -0.0844    1.3832 CT        1 <0>       -0.08194
      7 C7         -0.8410   -1.9767   -0.1124 CT        1 <0>       -0.08194
      8 C8         -1.2634    1.0306   -1.4361 CT        1 <0>       -0.11514
      9 O1          0.7412   -0.2391   -1.7137 OH        1 <0>       -0.59401
     10 H1          1.4307    1.2156    2.0406 HC        1 <0>        0.04077
     11 H2          2.6294    0.6536    0.8743 HC        1 <0>        0.04077
     12 H3          1.6221   -1.3981    0.6127 HC        1 <0>        0.04869
     13 H4          0.8583   -1.0618    2.1655 HC        1 <0>        0.04869
     14 H5          0.1999    2.2508    0.4337 HC        1 <0>        0.04498
     15 H6          1.5167    1.9377   -0.7072 HC        1 <0>        0.04498
     16 H7         -2.4284   -0.0162    0.8610 HC        1 <0>        0.03759
     17 H8         -1.1903    0.8940    1.7474 HC        1 <0>        0.03759
     18 H9         -1.5672   -0.7759    2.2134 HC        1 <0>        0.03759
     19 H10        -1.7964   -1.8842   -0.6206 HC        1 <0>        0.03759
     20 H11        -0.9394   -2.6637    0.7230 HC        1 <0>        0.03759
     21 H12        -0.0956   -2.3538   -0.8066 HC        1 <0>        0.03759
     22 H13        -1.8526    0.2510   -1.9175 HC        1 <0>        0.04304
     23 H14        -0.9202    1.7349   -2.1929 HC        1 <0>        0.04304
     24 H15        -1.8905    1.5578   -0.7181 HC        1 <0>        0.04304
     25 H16         1.0294    0.4556   -2.3221 HO        1 <0>        0.39485
@<TRIPOS>BOND
     1    1    2 1
     2    1    3 1
     3    2    4 1
     4    3    5 1
     5    4    5 1
     6    4    6 1
     7    4    7 1
     8    5    8 1
     9    5    9 1
    10    1   10 1
    11    1   11 1
    12    2   12 1
    13    2   13 1
    14    3   14 1
    15    3   15 1
    16    6   16 1
    17    6   17 1
    18    6   18 1
    19    7   19 1
    20    7   20 1
    21    7   21 1
    22    8   22 1
    23    8   23 1
    24    8   24 1
    25    9   25 1
@<TRIPOS>SUBSTRUCTURE
     1 <0>         1 GROUP 0 A     ****
