@<TRIPOS>MOLECULE
AlkEthOH_r977
   24    24     1     0     0
SMALL
USER_CHARGES

@<TRIPOS>ATOM
      1 C1         -0.8107    0.8712   -1.7580 CT        1 <0>       -0.08846
      2 C2         -0.9088   -0.6138   -1.3934 CT        1 <0>       -0.10779
      3 C3         -0.3892    1.8065   -0.6278 CT        1 <0>        0.12586
      4 C4         -0.3108    1.0137    1.6264 CT        1 <0>        0.08917
      5 C5          0.3631   -1.2681   -0.8255 CT        1 <0>        0.14769
      6 C6          0.0630   -0.4550    1.4214 CT        1 <0>        0.30117
      7 C7          1.4609   -1.3602   -1.8814 CT        1 <0>       -0.09179
      8 O1         -1.1167    1.5249    0.5657 OS        1 <0>       -0.41687
      9 O2          0.9212   -0.5717    0.2891 OS        1 <0>       -0.40622
     10 O3          0.7281   -0.9474    2.5836 OH        1 <0>       -0.59509
     11 H1         -0.1398    1.0114   -2.6130 HC        1 <0>        0.04576
     12 H2         -1.8079    1.1801   -2.0984 HC        1 <0>        0.04576
     13 H3         -1.7294   -0.7321   -0.6758 HC        1 <0>        0.04904
     14 H4         -1.2234   -1.1691   -2.2865 HC        1 <0>        0.04904
     15 H5          0.6955    1.7783   -0.4729 H1        1 <0>        0.05107
     16 H6         -0.6291    2.8357   -0.9177 H1        1 <0>        0.05107
     17 H7         -0.8918    1.1105    2.5507 H1        1 <0>        0.06047
     18 H8          0.5799    1.6412    1.7567 H1        1 <0>        0.06047
     19 H9          0.1209   -2.2891   -0.5045 H1        1 <0>        0.03981
     20 H10        -0.8541   -1.0627    1.2858 H2        1 <0>        0.04472
     21 H11         1.7287   -0.3621   -2.2254 HC        1 <0>        0.04670
     22 H12         1.1105   -1.9466   -2.7298 HC        1 <0>        0.04670
     23 H13         2.3429   -1.8391   -1.4580 HC        1 <0>        0.04670
     24 H14         0.1050   -0.8494    3.3198 HO        1 <0>        0.40502
@<TRIPOS>BOND
     1    1    2 1
     2    1    3 1
     3    2    5 1
     4    3    8 1
     5    4    6 1
     6    4    8 1
     7    5    7 1
     8    5    9 1
     9    6    9 1
    10    6   10 1
    11    1   11 1
    12    1   12 1
    13    2   13 1
    14    2   14 1
    15    3   15 1
    16    3   16 1
    17    4   17 1
    18    4   18 1
    19    5   19 1
    20    6   20 1
    21    7   21 1
    22    7   22 1
    23    7   23 1
    24   10   24 1
@<TRIPOS>SUBSTRUCTURE
     1 <0>         1 GROUP 0 A     ****
