@<TRIPOS>MOLECULE
AlkEthOH_r805
   29    29     1     0     0
SMALL
USER_CHARGES

@<TRIPOS>ATOM
      1 C1         -0.6310   -0.0768   -1.0747 CT        1 <0>       -0.09444
      2 C2          2.0313    0.5695    1.0853 CT        1 <0>        0.10893
      3 C3          1.2910    1.6874    0.3614 CT        1 <0>        0.09590
      4 C4          0.4218   -1.1963    1.0079 CT        1 <0>        0.13379
      5 C5         -0.9828    1.2525   -0.3786 CT        1 <0>        0.14276
      6 C6         -0.5613   -1.3420   -0.1740 CT        1 <0>       -0.06428
      7 C7         -1.1125    2.3946   -1.3881 CT        1 <0>       -0.12348
      8 C8         -0.0968   -2.5158   -1.0655 CT        1 <0>       -0.08911
      9 C9         -1.9545   -1.6869    0.3831 CT        1 <0>       -0.08911
     10 O1          1.6919   -0.7161    0.5667 OS        1 <0>       -0.41895
     11 O2         -0.0969    1.6298    0.6764 OS        1 <0>       -0.42616
     12 H1         -1.3762   -0.2534   -1.8632 HC        1 <0>        0.05179
     13 H2          0.3249    0.0300   -1.6026 HC        1 <0>        0.05179
     14 H3          3.1072    0.6995    0.9300 H1        1 <0>        0.05267
     15 H4          1.8477    0.5954    2.1659 H1        1 <0>        0.05267
     16 H5          1.6611    2.6508    0.7271 H1        1 <0>        0.04958
     17 H6          1.4795    1.6489   -0.7152 H1        1 <0>        0.04958
     18 H7          0.0015   -0.5703    1.8045 H1        1 <0>        0.04966
     19 H8          0.5975   -2.1774    1.4661 H1        1 <0>        0.04966
     20 H9         -1.9660    1.1433    0.0922 H1        1 <0>        0.07034
     21 H10        -0.1600    2.5501   -1.8902 HC        1 <0>        0.04241
     22 H11        -1.3995    3.3087   -0.8726 HC        1 <0>        0.04241
     23 H12        -1.8713    2.1462   -2.1272 HC        1 <0>        0.04241
     24 H13        -0.0391   -3.4132   -0.4623 HC        1 <0>        0.03653
     25 H14         0.8776   -2.2812   -1.4750 HC        1 <0>        0.03653
     26 H15        -0.8125   -2.6528   -1.8664 HC        1 <0>        0.03653
     27 H16        -1.8805   -2.5711    1.0070 HC        1 <0>        0.03653
     28 H17        -2.6318   -1.8770   -0.4425 HC        1 <0>        0.03653
     29 H18        -2.3199   -0.8526    0.9721 HC        1 <0>        0.03653
@<TRIPOS>BOND
     1    1    5 1
     2    1    6 1
     3    2    3 1
     4    2   10 1
     5    3   11 1
     6    4    6 1
     7    4   10 1
     8    5    7 1
     9    5   11 1
    10    6    8 1
    11    6    9 1
    12    1   12 1
    13    1   13 1
    14    2   14 1
    15    2   15 1
    16    3   16 1
    17    3   17 1
    18    4   18 1
    19    4   19 1
    20    5   20 1
    21    7   21 1
    22    7   22 1
    23    7   23 1
    24    8   24 1
    25    8   25 1
    26    8   26 1
    27    9   27 1
    28    9   28 1
    29    9   29 1
@<TRIPOS>SUBSTRUCTURE
     1 <0>         1 GROUP 0 A     ****
