@<TRIPOS>MOLECULE
AlkEthOH_r987
   23    23     1     0     0
SMALL
USER_CHARGES

@<TRIPOS>ATOM
      1 C1          0.4757   -0.0572   -1.7064 CT        1 <0>       -0.10716
      2 C2          1.4486   -0.3858   -0.5662 CT        1 <0>       -0.05510
      3 C3         -0.8719   -0.7819   -1.6779 CT        1 <0>        0.14260
      4 C4          0.1688    0.9745    1.2421 CT        1 <0>        0.14430
      5 C5         -1.8845    0.4982    0.0842 CT        1 <0>        0.32193
      6 C6          0.9187   -0.3216    0.8816 CT        1 <0>       -0.09896
      7 C7          2.0723   -0.5378    1.8687 CT        1 <0>       -0.09170
      8 O1         -1.5275   -0.7869   -0.4155 OS        1 <0>       -0.45001
      9 O2         -0.8003    1.3985    0.2893 OS        1 <0>       -0.44859
     10 H1          0.3125    1.0259   -1.7367 HC        1 <0>        0.05196
     11 H2          0.9684   -0.2883   -2.6599 HC        1 <0>        0.05196
     12 H3          1.8422   -1.3966   -0.7390 HC        1 <0>        0.03433
     13 H4          2.3085    0.2904   -0.6622 HC        1 <0>        0.03433
     14 H5         -1.5449   -0.3604   -2.4333 H1        1 <0>        0.04302
     15 H6         -0.7113   -1.8315   -1.9478 H1        1 <0>        0.04302
     16 H7         -0.3149    0.8761    2.2213 H1        1 <0>        0.04382
     17 H8          0.8891    1.7965    1.3289 H1        1 <0>        0.04382
     18 H9         -2.5851    0.9675   -0.6147 H2        1 <0>        0.05978
     19 H10        -2.4162    0.3583    1.0315 H2        1 <0>        0.05978
     20 H11         0.2404   -1.1695    1.0291 HC        1 <0>        0.07352
     21 H12         2.7877    0.2747    1.7743 HC        1 <0>        0.03445
     22 H13         2.5654   -1.4809    1.6494 HC        1 <0>        0.03445
     23 H14         1.6826   -0.5605    2.8828 HC        1 <0>        0.03445
@<TRIPOS>BOND
     1    1    2 1
     2    1    3 1
     3    2    6 1
     4    3    8 1
     5    4    6 1
     6    4    9 1
     7    5    8 1
     8    5    9 1
     9    6    7 1
    10    1   10 1
    11    1   11 1
    12    2   12 1
    13    2   13 1
    14    3   14 1
    15    3   15 1
    16    4   16 1
    17    4   17 1
    18    5   18 1
    19    5   19 1
    20    6   20 1
    21    7   21 1
    22    7   22 1
    23    7   23 1
@<TRIPOS>SUBSTRUCTURE
     1 <0>         1 GROUP 0 A     ****
