@<TRIPOS>MOLECULE
AlkEthOH_r383
   26    26     1     0     0
SMALL
USER_CHARGES

@<TRIPOS>ATOM
      1 C1         -1.0242   -1.5892    1.1788 CT        1 <0>       -0.07378
      2 C2         -1.1730   -1.9423   -0.3020 CT        1 <0>       -0.07071
      3 C3         -1.1420   -0.0937    1.5075 CT        1 <0>       -0.06682
      4 C4          0.1419   -2.0741   -1.0754 CT        1 <0>       -0.09434
      5 C5          0.1442    0.7217    1.3454 CT        1 <0>       -0.12107
      6 C6          1.0631   -0.8683   -0.9787 CT        1 <0>        0.14068
      7 C7          0.4483    1.2707   -0.0667 CT        1 <0>        0.34651
      8 C8         -0.5047    2.4184   -0.4138 CT        1 <0>       -0.11484
      9 O1          0.2860    0.3125   -1.1108 OS        1 <0>       -0.40619
     10 O2          1.7605    1.8442   -0.0844 OH        1 <0>       -0.62631
     11 H1         -1.8499   -2.0867    1.7057 HC        1 <0>        0.03742
     12 H2         -0.1037   -2.0129    1.5965 HC        1 <0>        0.03742
     13 H3         -1.6806   -2.9134   -0.3721 HC        1 <0>        0.04320
     14 H4         -1.8356   -1.2251   -0.8011 HC        1 <0>        0.04320
     15 H5         -1.9753    0.3591    0.9604 HC        1 <0>        0.04141
     16 H6         -1.4165   -0.0316    2.5696 HC        1 <0>        0.04141
     17 H7          0.6845   -2.9695   -0.7500 HC        1 <0>        0.04230
     18 H8         -0.1159   -2.2348   -2.1301 HC        1 <0>        0.04230
     19 H9          0.1009    1.5773    2.0344 HC        1 <0>        0.05017
     20 H10         0.9916    0.1317    1.7168 HC        1 <0>        0.05017
     21 H11         1.6422   -0.9021   -0.0512 H1        1 <0>        0.04666
     22 H12         1.7866   -0.8923   -1.8009 H1        1 <0>        0.04666
     23 H13        -0.2767    2.7916   -1.4087 HC        1 <0>        0.05259
     24 H14        -0.3852    3.2209    0.3092 HC        1 <0>        0.05259
     25 H15        -1.5301    2.0591   -0.3889 HC        1 <0>        0.05259
     26 H16         1.7512    2.5554    0.5716 HO        1 <0>        0.40678
@<TRIPOS>BOND
     1    1    2 1
     2    1    3 1
     3    2    4 1
     4    3    5 1
     5    4    6 1
     6    5    7 1
     7    6    9 1
     8    7    8 1
     9    7    9 1
    10    7   10 1
    11    1   11 1
    12    1   12 1
    13    2   13 1
    14    2   14 1
    15    3   15 1
    16    3   16 1
    17    4   17 1
    18    4   18 1
    19    5   19 1
    20    5   20 1
    21    6   21 1
    22    6   22 1
    23    8   23 1
    24    8   24 1
    25    8   25 1
    26   10   26 1
@<TRIPOS>SUBSTRUCTURE
     1 <0>         1 GROUP 0 A     ****
