@<TRIPOS>MOLECULE
AlkEthOH_r848
   18    18     1     0     0
SMALL
USER_CHARGES

@<TRIPOS>ATOM
      1 C1         -0.1682   -0.9414    1.1725 CT        1 <0>       -0.09202
      2 C2          0.6842    0.3373    1.3065 CT        1 <0>       -0.09200
      3 C3         -0.1565   -0.7057   -0.3602 CT        1 <0>       -0.08221
      4 C4          0.0730    0.8031   -0.0404 CT        1 <0>       -0.08221
      5 C5         -1.4285   -1.0548   -1.1060 CT        1 <0>       -0.08182
      6 C6          0.9960    1.5616   -0.9724 CT        1 <0>       -0.08182
      7 H1          0.3076   -1.8642    1.5143 HC        1 <0>        0.04839
      8 H2         -1.1572   -0.8578    1.6385 HC        1 <0>        0.04839
      9 H3          0.4594    0.9660    2.1719 HC        1 <0>        0.04839
     10 H4          1.7636    0.1478    1.2757 HC        1 <0>        0.04839
     11 H5          0.7145   -1.1770   -0.8383 HC        1 <0>        0.05576
     12 H6         -0.8668    1.3546    0.1076 HC        1 <0>        0.05576
     13 H7         -2.2918   -0.5848   -0.6281 HC        1 <0>        0.03450
     14 H8         -1.5819   -2.1368   -1.1123 HC        1 <0>        0.03450
     15 H9         -1.3718   -0.7061   -2.1403 HC        1 <0>        0.03450
     16 H10         1.9287    1.0104   -1.1170 HC        1 <0>        0.03450
     17 H11         1.2343    2.5438   -0.5567 HC        1 <0>        0.03450
     18 H12         0.5217    1.7027   -1.9469 HC        1 <0>        0.03450
@<TRIPOS>BOND
     1    1    2 1
     2    1    3 1
     3    2    4 1
     4    3    4 1
     5    3    5 1
     6    4    6 1
     7    1    7 1
     8    1    8 1
     9    2    9 1
    10    2   10 1
    11    3   11 1
    12    4   12 1
    13    5   13 1
    14    5   14 1
    15    5   15 1
    16    6   16 1
    17    6   17 1
    18    6   18 1
@<TRIPOS>SUBSTRUCTURE
     1 <0>         1 GROUP 0 A     ****
