@<TRIPOS>MOLECULE
AlkEthOH_r803
   30    30     1     0     0
SMALL
USER_CHARGES

@<TRIPOS>ATOM
      1 C1          2.2709    1.1558    0.0373 CT        1 <0>       -0.14824
      2 C2         -1.0355   -1.1500    0.1487 CT        1 <0>       -0.10771
      3 C3          1.1922    2.1310    0.5311 CT        1 <0>        0.13662
      4 C4          2.3686   -0.1422    0.8430 CT        1 <0>        0.13832
      5 C5         -0.6936    1.3134   -0.6862 CT        1 <0>        0.13807
      6 C6          0.4778   -1.4003    0.0134 CT        1 <0>        0.15035
      7 C7         -1.5924    0.0654   -0.6413 CT        1 <0>        0.15044
      8 C8          0.7967   -2.8869    0.1442 CT        1 <0>       -0.11642
      9 C9         -1.9452   -0.3473   -2.0757 CT        1 <0>       -0.12684
     10 O1         -0.1108    1.5509    0.5930 OS        1 <0>       -0.38776
     11 O2          1.1030   -0.7289    1.1136 OS        1 <0>       -0.40349
     12 O3         -2.8318    0.4392   -0.0212 OH        1 <0>       -0.59080
     13 H1          2.0826    0.8975   -1.0092 HC        1 <0>        0.04596
     14 H2          3.2451    1.6584    0.0522 HC        1 <0>        0.04596
     15 H3         -1.5946   -2.0411   -0.1673 HC        1 <0>        0.06465
     16 H4         -1.2845   -1.0205    1.2118 HC        1 <0>        0.06465
     17 H5          1.4439    2.4563    1.5463 H1        1 <0>        0.04754
     18 H6          1.1653    3.0275   -0.0993 H1        1 <0>        0.04754
     19 H7          3.0270   -0.8629    0.3449 H1        1 <0>        0.04407
     20 H8          2.8203    0.0847    1.8149 H1        1 <0>        0.04407
     21 H9          0.0705    1.1901   -1.4591 H1        1 <0>        0.03975
     22 H10        -1.2771    2.2043   -0.9465 H1        1 <0>        0.03975
     23 H11         0.8501   -1.0407   -0.9516 H1        1 <0>        0.03630
     24 H12         0.4326   -3.2609    1.1001 HC        1 <0>        0.04151
     25 H13         1.8735   -3.0407    0.0890 HC        1 <0>        0.04151
     26 H14         0.3162   -3.4409   -0.6611 HC        1 <0>        0.04151
     27 H15        -2.3326    0.5128   -2.6138 HC        1 <0>        0.04230
     28 H16        -2.6982   -1.1295   -2.0512 HC        1 <0>        0.04230
     29 H17        -1.0540   -0.7165   -2.5745 HC        1 <0>        0.04230
     30 H18        -3.4060   -0.3356   -0.0881 HO        1 <0>        0.39579
@<TRIPOS>BOND
     1    1    3 1
     2    1    4 1
     3    2    6 1
     4    2    7 1
     5    3   10 1
     6    4   11 1
     7    5    7 1
     8    5   10 1
     9    6    8 1
    10    6   11 1
    11    7    9 1
    12    7   12 1
    13    1   13 1
    14    1   14 1
    15    2   15 1
    16    2   16 1
    17    3   17 1
    18    3   18 1
    19    4   19 1
    20    4   20 1
    21    5   21 1
    22    5   22 1
    23    6   23 1
    24    8   24 1
    25    8   25 1
    26    8   26 1
    27    9   27 1
    28    9   28 1
    29    9   29 1
    30   12   30 1
@<TRIPOS>SUBSTRUCTURE
     1 <0>         1 GROUP 0 A     ****
