@<TRIPOS>MOLECULE
AlkEthOH_r503
   26    26     1     0     0
SMALL
USER_CHARGES

@<TRIPOS>ATOM
      1 C1          1.4128    1.0007    0.3617 CT        1 <0>       -0.10767
      2 C2          1.3609   -0.4989    0.0339 CT        1 <0>       -0.05733
      3 C3          1.0191    1.9072   -0.8065 CT        1 <0>        0.13634
      4 C4         -1.2131   -0.7292   -0.1211 CT        1 <0>        0.14345
      5 C5         -1.3436    1.5519   -0.7757 CT        1 <0>        0.32074
      6 C6          0.0949   -1.2841    0.4878 CT        1 <0>       -0.06703
      7 C7         -0.0069   -1.2903    2.0274 CT        1 <0>       -0.08720
      8 C8          0.2535   -2.7468    0.0191 CT        1 <0>       -0.08720
      9 O1         -0.1317    1.4744   -1.5196 OS        1 <0>       -0.44599
     10 O2         -1.4459    0.6150    0.2929 OS        1 <0>       -0.45053
     11 H1          0.8022    1.2386    1.2369 HC        1 <0>        0.05239
     12 H2          2.4399    1.2645    0.6452 HC        1 <0>        0.05239
     13 H3          1.5180   -0.6425   -1.0433 HC        1 <0>        0.04095
     14 H4          2.2304   -0.9654    0.5184 HC        1 <0>        0.04095
     15 H5          0.8823    2.9400   -0.4654 H1        1 <0>        0.04357
     16 H6          1.8421    1.9226   -1.5300 H1        1 <0>        0.04357
     17 H7         -1.2095   -0.8232   -1.2148 H1        1 <0>        0.04649
     18 H8         -2.0651   -1.3191    0.2376 H1        1 <0>        0.04649
     19 H9         -1.4672    2.5607   -0.3667 H2        1 <0>        0.05981
     20 H10        -2.1746    1.3802   -1.4686 H2        1 <0>        0.05981
     21 H11        -0.8929   -1.8408    2.3208 HC        1 <0>        0.03600
     22 H12        -0.0737   -0.2684    2.3812 HC        1 <0>        0.03600
     23 H13         0.8758   -1.7661    2.4380 HC        1 <0>        0.03600
     24 H14        -0.6187   -3.3115    0.3255 HC        1 <0>        0.03600
     25 H15         1.1435   -3.1671    0.4713 HC        1 <0>        0.03600
     26 H16         0.3440   -2.7630   -1.0602 HC        1 <0>        0.03600
@<TRIPOS>BOND
     1    1    2 1
     2    1    3 1
     3    2    6 1
     4    3    9 1
     5    4    6 1
     6    4   10 1
     7    5    9 1
     8    5   10 1
     9    6    7 1
    10    6    8 1
    11    1   11 1
    12    1   12 1
    13    2   13 1
    14    2   14 1
    15    3   15 1
    16    3   16 1
    17    4   17 1
    18    4   18 1
    19    5   19 1
    20    5   20 1
    21    7   21 1
    22    7   22 1
    23    7   23 1
    24    8   24 1
    25    8   25 1
    26    8   26 1
@<TRIPOS>SUBSTRUCTURE
     1 <0>         1 GROUP 0 A     ****
