@<TRIPOS>MOLECULE
AlkEthOH_r358
   25    25     1     0     0
SMALL
USER_CHARGES

@<TRIPOS>ATOM
      1 C1         -0.9417   -0.1010   -1.9328 CT        1 <0>       -0.07570
      2 C2         -0.3484    0.6945   -0.7747 CT        1 <0>       -0.07570
      3 C3         -2.2605   -0.8129   -1.6319 CT        1 <0>       -0.06994
      4 C4         -1.2785    1.7333   -0.1494 CT        1 <0>       -0.06994
      5 C5         -3.4385    0.1566   -1.5195 CT        1 <0>       -0.08113
      6 C6         -2.3972    1.0949    0.6703 CT        1 <0>       -0.08113
      7 C7         -3.6714    0.7356   -0.1138 CT        1 <0>        0.15305
      8 C8         -4.6095    1.9465   -0.2193 CT        1 <0>       -0.12390
      9 O1         -4.3666   -0.2657    0.6455 OH        1 <0>       -0.60272
     10 H1         -1.0705    0.5614   -2.7980 HC        1 <0>        0.03668
     11 H2         -0.2045   -0.8549   -2.2366 HC        1 <0>        0.03668
     12 H3          0.0001   -0.0002   -0.0001 HC        1 <0>        0.03668
     13 H4          0.5475    1.2100   -1.1432 HC        1 <0>        0.03668
     14 H5         -2.4635   -1.4879   -2.4734 HC        1 <0>        0.04286
     15 H6         -2.1731   -1.4457   -0.7417 HC        1 <0>        0.04286
     16 H7         -0.6721    2.3444    0.5312 HC        1 <0>        0.04286
     17 H8         -1.6729    2.4161   -0.9098 HC        1 <0>        0.04286
     18 H9         -3.3105    0.9643   -2.2513 HC        1 <0>        0.04733
     19 H10        -4.3435   -0.3886   -1.8209 HC        1 <0>        0.04733
     20 H11        -2.0140    0.2068    1.1911 HC        1 <0>        0.04733
     21 H12        -2.6703    1.7841    1.4813 HC        1 <0>        0.04733
     22 H13        -4.7779    2.3600    0.7708 HC        1 <0>        0.04160
     23 H14        -5.5569    1.6329   -0.6476 HC        1 <0>        0.04160
     24 H15        -4.1553    2.7007   -0.8553 HC        1 <0>        0.04160
     25 H16        -4.5038    0.1150    1.5235 HO        1 <0>        0.39483
@<TRIPOS>BOND
     1    1    2 1
     2    1    3 1
     3    2    4 1
     4    3    5 1
     5    4    6 1
     6    5    7 1
     7    6    7 1
     8    7    8 1
     9    7    9 1
    10    1   10 1
    11    1   11 1
    12    2   12 1
    13    2   13 1
    14    3   14 1
    15    3   15 1
    16    4   16 1
    17    4   17 1
    18    5   18 1
    19    5   19 1
    20    6   20 1
    21    6   21 1
    22    8   22 1
    23    8   23 1
    24    8   24 1
    25    9   25 1
@<TRIPOS>SUBSTRUCTURE
     1 <0>         1 GROUP 0 A     ****
