@<TRIPOS>MOLECULE
AlkEthOH_r602
   22    22     1     0     0
SMALL
USER_CHARGES

@<TRIPOS>ATOM
      1 C1         -0.4201    1.4690   -0.2975 CT        1 <0>        0.11680
      2 C2         -0.5427   -0.0367   -0.6151 CT        1 <0>       -0.10113
      3 C3          0.5347   -0.1817    0.5290 CT        1 <0>        0.14073
      4 C4         -1.9456   -0.5732   -0.3152 CT        1 <0>       -0.08285
      5 C5         -0.1214   -0.4184   -2.0317 CT        1 <0>       -0.08285
      6 C6          2.0015   -0.3119    0.1091 CT        1 <0>       -0.09579
      7 C7          0.2203   -1.1397    1.6758 CT        1 <0>       -0.09579
      8 O1          0.2732    1.1925    0.9458 OS        1 <0>       -0.42366
      9 H1          0.2097    2.0592   -0.9718 H1        1 <0>        0.05319
     10 H2         -1.3578    2.0059   -0.1257 H1        1 <0>        0.05319
     11 H3         -1.9890   -1.6336   -0.5519 HC        1 <0>        0.04065
     12 H4         -2.6767   -0.0397   -0.9178 HC        1 <0>        0.04065
     13 H5         -2.1735   -0.4298    0.7383 HC        1 <0>        0.04065
     14 H6         -0.2367   -1.4917   -2.1755 HC        1 <0>        0.04065
     15 H7          0.9210   -0.1476   -2.1932 HC        1 <0>        0.04065
     16 H8         -0.7421    0.1067   -2.7564 HC        1 <0>        0.04065
     17 H9          2.6276   -0.4037    0.9934 HC        1 <0>        0.04571
     18 H10         2.2999    0.5698   -0.4531 HC        1 <0>        0.04571
     19 H11         2.1261   -1.1949   -0.5133 HC        1 <0>        0.04571
     20 H12         1.0422   -1.1433    2.3900 HC        1 <0>        0.04571
     21 H13         0.0812   -2.1475    1.2876 HC        1 <0>        0.04571
     22 H14        -0.6905   -0.8237    2.1820 HC        1 <0>        0.04571
@<TRIPOS>BOND
     1    1    2 1
     2    1    8 1
     3    2    3 1
     4    2    4 1
     5    2    5 1
     6    3    6 1
     7    3    7 1
     8    3    8 1
     9    1    9 1
    10    1   10 1
    11    4   11 1
    12    4   12 1
    13    4   13 1
    14    5   14 1
    15    5   15 1
    16    5   16 1
    17    6   17 1
    18    6   18 1
    19    6   19 1
    20    7   20 1
    21    7   21 1
    22    7   22 1
@<TRIPOS>SUBSTRUCTURE
     1 <0>         1 GROUP 0 A     ****
