@<TRIPOS>MOLECULE
AlkEthOH_r742
   28    28     1     0     0
SMALL
USER_CHARGES

@<TRIPOS>ATOM
      1 C1         -0.5351    1.5559   -1.2701 CT        1 <0>       -0.06885
      2 C2         -0.4348    0.3953   -2.2551 CT        1 <0>       -0.11198
      3 C3         -1.1793    1.1508    0.0600 CT        1 <0>       -0.07025
      4 C4          0.7640   -0.5188   -2.0289 CT        1 <0>        0.13351
      5 C5          0.1805   -1.0183    0.2497 CT        1 <0>        0.15003
      6 C6         -0.3483    0.2380    1.0075 CT        1 <0>       -0.06265
      7 C7          0.8368   -2.0730    1.1429 CT        1 <0>       -0.09786
      8 C8          0.8088    1.0668    1.6091 CT        1 <0>       -0.08513
      9 C9         -1.2837   -0.1784    2.1644 CT        1 <0>       -0.08513
     10 O1          1.1910   -0.6183   -0.6797 OS        1 <0>       -0.41868
     11 H1          0.4404    2.0295   -1.1174 HC        1 <0>        0.04632
     12 H2         -1.1796    2.3202   -1.7230 HC        1 <0>        0.04632
     13 H3         -1.3566   -0.1983   -2.2143 HC        1 <0>        0.04176
     14 H4         -0.3814    0.7832   -3.2797 HC        1 <0>        0.04176
     15 H5         -1.4416    2.0726    0.5975 HC        1 <0>        0.03659
     16 H6         -2.1373    0.6599   -0.1605 HC        1 <0>        0.03659
     17 H7          0.5622   -1.5217   -2.4227 H1        1 <0>        0.04150
     18 H8          1.6186   -0.1288   -2.5931 H1        1 <0>        0.04150
     19 H9         -0.6481   -1.5153   -0.2728 H1        1 <0>        0.03755
     20 H10         1.6683   -1.6279    1.6851 HC        1 <0>        0.04328
     21 H11         1.2056   -2.8933    0.5309 HC        1 <0>        0.04328
     22 H12         0.1081   -2.4554    1.8544 HC        1 <0>        0.04328
     23 H13         1.3885    0.4334    2.2689 HC        1 <0>        0.03621
     24 H14         0.3934    1.8984    2.1644 HC        1 <0>        0.03621
     25 H15         1.4335    1.4336    0.8042 HC        1 <0>        0.03621
     26 H16        -0.7364   -0.8172    2.8464 HC        1 <0>        0.03621
     27 H17        -2.1315   -0.7137    1.7555 HC        1 <0>        0.03621
     28 H18        -1.6215    0.7115    2.6809 HC        1 <0>        0.03621
@<TRIPOS>BOND
     1    1    2 1
     2    1    3 1
     3    2    4 1
     4    3    6 1
     5    4   10 1
     6    5    6 1
     7    5    7 1
     8    5   10 1
     9    6    8 1
    10    6    9 1
    11    1   11 1
    12    1   12 1
    13    2   13 1
    14    2   14 1
    15    3   15 1
    16    3   16 1
    17    4   17 1
    18    4   18 1
    19    5   19 1
    20    7   20 1
    21    7   21 1
    22    7   22 1
    23    8   23 1
    24    8   24 1
    25    8   25 1
    26    9   26 1
    27    9   27 1
    28    9   28 1
@<TRIPOS>SUBSTRUCTURE
     1 <0>         1 GROUP 0 A     ****
