@<TRIPOS>MOLECULE
AlkEthOH_r561
   27    27     1     0     0
SMALL
USER_CHARGES

@<TRIPOS>ATOM
      1 C1         -0.2348   -0.3638   -2.3619 CT        1 <0>       -0.10627
      2 C2         -0.7259   -1.5852   -1.5725 CT        1 <0>       -0.09170
      3 C3          1.2033    0.8938    0.4543 CT        1 <0>       -0.15540
      4 C4         -0.9681    0.9387   -2.0471 CT        1 <0>        0.13320
      5 C5         -0.0134   -1.7981   -0.2378 CT        1 <0>        0.14351
      6 C6          0.2745    1.9001   -0.2292 CT        1 <0>        0.13804
      7 C7          0.5221   -0.1094    1.4091 CT        1 <0>        0.36096
      8 C8         -0.1752    0.6219    2.5602 CT        1 <0>       -0.11563
      9 O1         -0.9430    1.3177   -0.6791 OS        1 <0>       -0.40049
     10 O2         -0.4852   -0.8751    0.7369 OS        1 <0>       -0.39611
     11 O3          1.5457   -0.9406    1.9671 OH        1 <0>       -0.63097
     12 H1          0.8446   -0.2404   -2.2334 HC        1 <0>        0.04031
     13 H2         -0.3897   -0.5679   -3.4293 HC        1 <0>        0.04031
     14 H3         -1.8095   -1.5209   -1.4202 HC        1 <0>        0.05110
     15 H4         -0.5362   -2.4733   -2.1881 HC        1 <0>        0.05110
     16 H5          1.7454    0.3395   -0.3187 HC        1 <0>        0.05225
     17 H6          1.9876    1.4426    0.9926 HC        1 <0>        0.05225
     18 H7         -0.5861    1.7550   -2.6715 H1        1 <0>        0.04320
     19 H8         -2.0238    0.8162   -2.3153 H1        1 <0>        0.04320
     20 H9         -0.2632   -2.7975    0.1358 H1        1 <0>        0.04570
     21 H10         1.0737   -1.7721   -0.3687 H1        1 <0>        0.04570
     22 H11        -0.0016    2.6696    0.5003 H1        1 <0>        0.04213
     23 H12         0.7967    2.4199   -1.0412 H1        1 <0>        0.04213
     24 H13        -0.6475   -0.1024    3.2193 HC        1 <0>        0.05462
     25 H14        -0.9320    1.2925    2.1607 HC        1 <0>        0.05462
     26 H15         0.5560    1.1977    3.1224 HC        1 <0>        0.05462
     27 H16         2.1488   -0.3471    2.4370 HO        1 <0>        0.40762
@<TRIPOS>BOND
     1    1    2 1
     2    1    4 1
     3    2    5 1
     4    3    6 1
     5    3    7 1
     6    4    9 1
     7    5   10 1
     8    6    9 1
     9    7    8 1
    10    7   10 1
    11    7   11 1
    12    1   12 1
    13    1   13 1
    14    2   14 1
    15    2   15 1
    16    3   16 1
    17    3   17 1
    18    4   18 1
    19    4   19 1
    20    5   20 1
    21    5   21 1
    22    6   22 1
    23    6   23 1
    24    8   24 1
    25    8   25 1
    26    8   26 1
    27   11   27 1
@<TRIPOS>SUBSTRUCTURE
     1 <0>         1 GROUP 0 A     ****
