@<TRIPOS>MOLECULE
AlkEthOH_r1006
   25    25     1     0     0
SMALL
USER_CHARGES

@<TRIPOS>ATOM
      1 C1         -1.3082   -1.0507   -0.4313 CT        1 <0>       -0.10770
      2 C2          0.8550    0.1946   -0.9347 CT        1 <0>       -0.06895
      3 C3         -1.6460   -0.7447    1.0261 CT        1 <0>        0.13143
      4 C4         -0.3424    1.2603    1.0698 CT        1 <0>        0.13304
      5 C5          0.1943   -1.1821   -0.7253 CT        1 <0>       -0.05962
      6 C6          0.9801    1.0707    0.3237 CT        1 <0>       -0.09380
      7 C7          0.3905   -2.0246   -1.9921 CT        1 <0>       -0.09166
      8 C8          1.5698    2.4313   -0.0551 CT        1 <0>       -0.09099
      9 O1         -0.6932    0.0453    1.7188 OS        1 <0>       -0.41879
     10 H1         -1.8416   -1.9693   -0.7075 HC        1 <0>        0.04415
     11 H2         -1.7341   -0.2653   -1.0694 HC        1 <0>        0.04415
     12 H3          1.8661    0.0424   -1.3365 HC        1 <0>        0.03816
     13 H4          0.3044    0.7450   -1.7099 HC        1 <0>        0.03816
     14 H5         -2.6300   -0.2665    1.0949 H1        1 <0>        0.04200
     15 H6         -1.7203   -1.6889    1.5774 H1        1 <0>        0.04200
     16 H7         -0.2073    2.0028    1.8643 H1        1 <0>        0.04431
     17 H8         -1.1459    1.6279    0.4202 H1        1 <0>        0.04431
     18 H9          0.6916   -1.7064    0.1004 HC        1 <0>        0.06160
     19 H10         1.6858    0.5694    1.0001 HC        1 <0>        0.06318
     20 H11        -0.0914   -1.5328   -2.8326 HC        1 <0>        0.03351
     21 H12        -0.0508   -3.0067   -1.8460 HC        1 <0>        0.03351
     22 H13         1.4525   -2.1314   -2.1954 HC        1 <0>        0.03351
     23 H14         0.8897    2.9507   -0.7263 HC        1 <0>        0.03483
     24 H15         2.5267    2.2895   -0.5524 HC        1 <0>        0.03483
     25 H16         1.7160    3.0291    0.8417 HC        1 <0>        0.03483
@<TRIPOS>BOND
     1    1    3 1
     2    1    5 1
     3    2    5 1
     4    2    6 1
     5    3    9 1
     6    4    6 1
     7    4    9 1
     8    5    7 1
     9    6    8 1
    10    1   10 1
    11    1   11 1
    12    2   12 1
    13    2   13 1
    14    3   14 1
    15    3   15 1
    16    4   16 1
    17    4   17 1
    18    5   18 1
    19    6   19 1
    20    7   20 1
    21    7   21 1
    22    7   22 1
    23    8   23 1
    24    8   24 1
    25    8   25 1
@<TRIPOS>SUBSTRUCTURE
     1 <0>         1 GROUP 0 A     ****
