@<TRIPOS>MOLECULE
AlkEthOH_r255
   25    25     1     0     0
SMALL
USER_CHARGES

@<TRIPOS>ATOM
      1 C1         -0.8409    0.7891    0.5120 CT        1 <0>       -0.16180
      2 C2          2.2597   -0.6228   -0.1653 CT        1 <0>        0.10095
      3 C3          1.2824   -1.2641    0.8119 CT        1 <0>        0.10501
      4 C4          0.8149    0.7627   -1.4771 CT        1 <0>        0.13218
      5 C5         -0.4463    1.3589   -0.8556 CT        1 <0>        0.13198
      6 C6         -1.0696   -0.7347    0.5937 CT        1 <0>        0.35530
      7 C7         -2.2434   -1.1532   -0.2945 CT        1 <0>       -0.11933
      8 O1          1.8720    0.7045   -0.5181 OS        1 <0>       -0.40448
      9 O2          0.0436   -1.5206    0.1582 OS        1 <0>       -0.41663
     10 O3         -0.2188    2.7638   -0.6946 OH        1 <0>       -0.58724
     11 O4         -1.4537   -1.0835    1.9295 OH        1 <0>       -0.62178
     12 H1         -0.0918    1.0968    1.2541 HC        1 <0>        0.06449
     13 H2         -1.7496    1.3046    0.8561 HC        1 <0>        0.06449
     14 H3          3.2409   -0.5482    0.3150 H1        1 <0>        0.05521
     15 H4          2.3823   -1.2282   -1.0709 H1        1 <0>        0.05521
     16 H5          1.6831   -2.2335    1.1260 H1        1 <0>        0.06287
     17 H6          1.1583   -0.6535    1.7118 H1        1 <0>        0.06287
     18 H7          0.6077   -0.2179   -1.9201 H1        1 <0>        0.06156
     19 H8          1.1691    1.4091   -2.2881 H1        1 <0>        0.06156
     20 H9         -1.2759    1.2583   -1.5639 H1        1 <0>        0.02885
     21 H10        -2.3887   -2.2283   -0.2237 HC        1 <0>        0.05443
     22 H11        -2.0326   -0.8853   -1.3268 HC        1 <0>        0.05443
     23 H12        -3.1471   -0.6449    0.0326 HC        1 <0>        0.05443
     24 H13        -1.0529    3.1366   -0.3757 HO        1 <0>        0.39474
     25 H14        -2.2699   -0.5963    2.1090 HO        1 <0>        0.41070
@<TRIPOS>BOND
     1    1    5 1
     2    1    6 1
     3    2    3 1
     4    2    8 1
     5    3    9 1
     6    4    5 1
     7    4    8 1
     8    5   10 1
     9    6    7 1
    10    6    9 1
    11    6   11 1
    12    1   12 1
    13    1   13 1
    14    2   14 1
    15    2   15 1
    16    3   16 1
    17    3   17 1
    18    4   18 1
    19    4   19 1
    20    5   20 1
    21    7   21 1
    22    7   22 1
    23    7   23 1
    24   10   24 1
    25   11   25 1
@<TRIPOS>SUBSTRUCTURE
     1 <0>         1 GROUP 0 A     ****
