@<TRIPOS>MOLECULE
AlkEthOH_r449
   31    31     1     0     0
SMALL
USER_CHARGES

@<TRIPOS>ATOM
      1 C1         -0.5218    0.3923   -1.8768 CT        1 <0>       -0.06270
      2 C2         -1.3198   -0.8481   -1.4726 CT        1 <0>       -0.11055
      3 C3          0.0862   -0.4770    1.9493 CT        1 <0>       -0.09595
      4 C4          0.2407    1.1654   -0.7902 CT        1 <0>       -0.07607
      5 C5          1.1350   -0.6928    0.8467 CT        1 <0>       -0.06526
      6 C6         -2.4420   -0.5831   -0.4714 CT        1 <0>        0.13514
      7 C7         -1.3059   -0.9938    1.5902 CT        1 <0>        0.13000
      8 C8          1.4605    0.4981   -0.0980 CT        1 <0>       -0.04390
      9 C9          2.1810    1.5983    0.7220 CT        1 <0>       -0.08891
     10 C10         2.4622   -0.0051   -1.1608 CT        1 <0>       -0.08891
     11 O1         -1.9761   -0.0541    0.7615 OS        1 <0>       -0.42379
     12 H1          0.1736    0.1101   -2.6761 HC        1 <0>        0.03548
     13 H2         -1.2231    1.0970   -2.3443 HC        1 <0>        0.03548
     14 H3         -1.7762   -1.2627   -2.3807 HC        1 <0>        0.04351
     15 H4         -0.6465   -1.6232   -1.1047 HC        1 <0>        0.04351
     16 H5          0.4197   -1.0422    2.8292 HC        1 <0>        0.05066
     17 H6          0.0355    0.5743    2.2478 HC        1 <0>        0.05066
     18 H7          0.6128    2.0712   -1.2931 HC        1 <0>        0.05086
     19 H8         -0.4545    1.5531   -0.0394 HC        1 <0>        0.05086
     20 H9          2.0721   -0.9584    1.3591 HC        1 <0>        0.03581
     21 H10         0.8913   -1.5906    0.2706 HC        1 <0>        0.03581
     22 H11        -3.1351    0.1523   -0.8946 H1        1 <0>        0.04271
     23 H12        -3.0221   -1.4956   -0.2883 H1        1 <0>        0.04271
     24 H13        -1.2614   -1.9969    1.1502 H1        1 <0>        0.03721
     25 H14        -1.8971   -1.0743    2.5090 H1        1 <0>        0.03721
     26 H15         3.0367    1.1584    1.2155 HC        1 <0>        0.03307
     27 H16         1.4899    1.9936    1.4537 HC        1 <0>        0.03307
     28 H17         2.4996    2.3808    0.0472 HC        1 <0>        0.03307
     29 H18         3.3043   -0.4664   -0.6599 HC        1 <0>        0.03307
     30 H19         2.7995    0.8368   -1.7526 HC        1 <0>        0.03307
     31 H20         1.9670   -0.7294   -1.7957 HC        1 <0>        0.03307
@<TRIPOS>BOND
     1    1    2 1
     2    1    4 1
     3    2    6 1
     4    3    5 1
     5    3    7 1
     6    4    8 1
     7    5    8 1
     8    6   11 1
     9    7   11 1
    10    8    9 1
    11    8   10 1
    12    1   12 1
    13    1   13 1
    14    2   14 1
    15    2   15 1
    16    3   16 1
    17    3   17 1
    18    4   18 1
    19    4   19 1
    20    5   20 1
    21    5   21 1
    22    6   22 1
    23    6   23 1
    24    7   24 1
    25    7   25 1
    26    9   26 1
    27    9   27 1
    28    9   28 1
    29   10   29 1
    30   10   30 1
    31   10   31 1
@<TRIPOS>SUBSTRUCTURE
     1 <0>         1 GROUP 0 A     ****
