@<TRIPOS>MOLECULE
AlkEthOH_r80
   21    21     1     0     0
SMALL
USER_CHARGES

@<TRIPOS>ATOM
      1 C1          0.4286   -0.9981    1.8984 CT        1 <0>       -0.09049
      2 C2          0.0278    0.4781    1.8642 CT        1 <0>       -0.11318
      3 C3          0.6885   -1.6495    0.5420 CT        1 <0>        0.12612
      4 C4         -1.2411    0.7903    1.0693 CT        1 <0>        0.13268
      5 C5          0.7830   -0.3096   -1.4355 CT        1 <0>        0.08872
      6 C6         -0.1899    0.8189   -1.0893 CT        1 <0>        0.29810
      7 O1          1.4783   -0.8036   -0.2911 OS        1 <0>       -0.41598
      8 O2         -1.2389    0.3077   -0.2697 OS        1 <0>       -0.40387
      9 O3         -0.7362    1.3659   -2.2883 OH        1 <0>       -0.59263
     10 H1          1.3516   -1.0647    2.4894 HC        1 <0>        0.04560
     11 H2         -0.3272   -1.5806    2.4383 HC        1 <0>        0.04560
     12 H3         -0.1181    0.8237    2.8949 HC        1 <0>        0.05077
     13 H4          0.8690    1.0608    1.4716 HC        1 <0>        0.05077
     14 H5          1.2581   -2.5723    0.7003 H1        1 <0>        0.05128
     15 H6         -0.2497   -1.9494    0.0609 H1        1 <0>        0.05128
     16 H7         -2.1000    0.3303    1.5697 H1        1 <0>        0.05247
     17 H8         -1.4220    1.8713    1.0569 H1        1 <0>        0.05247
     18 H9          0.2750   -1.1347   -1.9505 H1        1 <0>        0.06049
     19 H10         1.5372    0.0692   -2.1346 H1        1 <0>        0.06049
     20 H11         0.3498    1.6374   -0.5715 H2        1 <0>        0.04449
     21 H12         0.0129    1.7020   -2.8038 HO        1 <0>        0.40482
@<TRIPOS>BOND
     1    1    2 1
     2    1    3 1
     3    2    4 1
     4    3    7 1
     5    4    8 1
     6    5    6 1
     7    5    7 1
     8    6    8 1
     9    6    9 1
    10    1   10 1
    11    1   11 1
    12    2   12 1
    13    2   13 1
    14    3   14 1
    15    3   15 1
    16    4   16 1
    17    4   17 1
    18    5   18 1
    19    5   19 1
    20    6   20 1
    21    9   21 1
@<TRIPOS>SUBSTRUCTURE
     1 <0>         1 GROUP 0 A     ****
