@<TRIPOS>MOLECULE
AlkEthOH_r133
   22    22     1     0     0
SMALL
USER_CHARGES

@<TRIPOS>ATOM
      1 C1         -2.0655    0.4920    1.0379 CT        1 <0>       -0.12439
      2 C2         -1.6521   -0.9781    1.0195 CT        1 <0>        0.12696
      3 C3         -0.9306    1.4550    0.6949 CT        1 <0>        0.13295
      4 C4          0.1376   -1.6947   -0.4028 CT        1 <0>        0.10212
      5 C5          1.1201   -0.5802   -0.0324 CT        1 <0>        0.08944
      6 C6          0.8648    0.7521   -0.7545 CT        1 <0>        0.34642
      7 O1         -1.2359   -1.3453   -0.2913 OS        1 <0>       -0.39791
      8 O2         -0.4760    1.2256   -0.6366 OS        1 <0>       -0.43967
      9 O3          2.4333   -1.0440   -0.3566 OH        1 <0>       -0.57822
     10 O4          1.8043    1.7176   -0.2780 OH        1 <0>       -0.61907
     11 H1         -2.8654    0.6309    0.2997 HC        1 <0>        0.06067
     12 H2         -2.4704    0.7434    2.0241 HC        1 <0>        0.06067
     13 H3         -0.8913   -1.1920    1.7785 H1        1 <0>        0.03997
     14 H4         -2.5266   -1.5917    1.2618 H1        1 <0>        0.03997
     15 H5         -1.3197    2.4786    0.7255 H1        1 <0>        0.04729
     16 H6         -0.1252    1.3992    1.4351 H1        1 <0>        0.04729
     17 H7          0.3084   -1.9978   -1.4428 H1        1 <0>        0.05438
     18 H8          0.3351   -2.5909    0.1989 H1        1 <0>        0.05438
     19 H9          1.1090   -0.4252    1.0513 H1        1 <0>        0.05054
     20 H10         1.0678    0.6157   -1.8233 H2        1 <0>        0.08652
     21 H11         2.5766   -1.8437    0.1705 HO        1 <0>        0.40343
     22 H12         1.6141    2.5402   -0.7529 HO        1 <0>        0.41626
@<TRIPOS>BOND
     1    1    2 1
     2    1    3 1
     3    2    7 1
     4    3    8 1
     5    4    5 1
     6    4    7 1
     7    5    6 1
     8    5    9 1
     9    6    8 1
    10    6   10 1
    11    1   11 1
    12    1   12 1
    13    2   13 1
    14    2   14 1
    15    3   15 1
    16    3   16 1
    17    4   17 1
    18    4   18 1
    19    5   19 1
    20    6   20 1
    21    9   21 1
    22   10   22 1
@<TRIPOS>SUBSTRUCTURE
     1 <0>         1 GROUP 0 A     ****
