@<TRIPOS>MOLECULE
AlkEthOH_r136
   21    21     1     0     0
SMALL
USER_CHARGES

@<TRIPOS>ATOM
      1 C1          1.4427    0.8718    0.3605 CT        1 <0>       -0.14798
      2 C2         -0.0535   -1.1791    0.5237 CT        1 <0>       -0.14761
      3 C3          0.6642    1.8993   -0.4563 CT        1 <0>        0.13378
      4 C4         -0.7450    0.2598   -1.4787 CT        1 <0>        0.13125
      5 C5          0.5871   -0.0087    1.2722 CT        1 <0>        0.15294
      6 C6         -1.1527   -0.8057   -0.4699 CT        1 <0>        0.11874
      7 O1         -0.6511    1.5177   -0.8284 OS        1 <0>       -0.41584
      8 O2          1.4404   -0.5794    2.2687 OH        1 <0>       -0.60093
      9 O3         -1.5320   -1.9757   -1.1919 OH        1 <0>       -0.60008
     10 H1          2.0146    0.2290   -0.3221 HC        1 <0>        0.05423
     11 H2          2.2081    1.3997    0.9443 HC        1 <0>        0.05423
     12 H3          0.7265   -1.7621    0.0136 HC        1 <0>        0.05283
     13 H4         -0.4707   -1.8912    1.2496 HC        1 <0>        0.05283
     14 H5          0.5617    2.8156    0.1358 H1        1 <0>        0.04944
     15 H6          1.2279    2.1728   -1.3558 H1        1 <0>        0.04944
     16 H7          0.1732   -0.0023   -2.0190 H1        1 <0>        0.06120
     17 H8         -1.5273    0.3499   -2.2413 H1        1 <0>        0.06120
     18 H9         -0.1722    0.5848    1.7941 H1        1 <0>        0.08977
     19 H10        -2.0286   -0.4571    0.0903 H1        1 <0>        0.05059
     20 H11         2.1046   -1.0978    1.7917 HO        1 <0>        0.39679
     21 H12        -1.8525   -2.6127   -0.5350 HO        1 <0>        0.40318
@<TRIPOS>BOND
     1    1    3 1
     2    1    5 1
     3    2    5 1
     4    2    6 1
     5    3    7 1
     6    4    6 1
     7    4    7 1
     8    5    8 1
     9    6    9 1
    10    1   10 1
    11    1   11 1
    12    2   12 1
    13    2   13 1
    14    3   14 1
    15    3   15 1
    16    4   16 1
    17    4   17 1
    18    5   18 1
    19    6   19 1
    20    8   20 1
    21    9   21 1
@<TRIPOS>SUBSTRUCTURE
     1 <0>         1 GROUP 0 A     ****
