@<TRIPOS>MOLECULE
AlkEthOH_r888
   25    25     1     0     0
SMALL
USER_CHARGES

@<TRIPOS>ATOM
      1 C1          0.1788   -1.0212    0.3603 CT        1 <0>       -0.07473
      2 C2          1.6317   -1.3964    0.0930 CT        1 <0>       -0.07407
      3 C3         -0.2921   -1.0988    1.8077 CT        1 <0>       -0.07005
      4 C4          2.6267   -0.9047    1.1405 CT        1 <0>       -0.07201
      5 C5          0.2562   -2.2807    2.5972 CT        1 <0>       -0.10536
      6 C6          2.8118   -1.8907    2.3069 CT        1 <0>       -0.05769
      7 C7          1.6061   -1.9896    3.2614 CT        1 <0>        0.14751
      8 C8          4.0718   -1.4992    3.0981 CT        1 <0>       -0.09061
      9 O1          1.8703   -3.0531    4.1849 OH        1 <0>       -0.60602
     10 H1         -0.0000   -0.0002   -0.0004 HC        1 <0>        0.03608
     11 H2         -0.4566   -1.6686   -0.2577 HC        1 <0>        0.03608
     12 H3          1.7171   -2.4836   -0.0254 HC        1 <0>        0.03933
     13 H4          1.9078   -0.9713   -0.8806 HC        1 <0>        0.03933
     14 H5         -0.0533   -0.1608    2.3240 HC        1 <0>        0.03809
     15 H6         -1.3881   -1.1587    1.7963 HC        1 <0>        0.03809
     16 H7          3.5935   -0.7902    0.6324 HC        1 <0>        0.04120
     17 H8          2.3540    0.0921    1.5073 HC        1 <0>        0.04120
     18 H9         -0.4634   -2.5191    3.3925 HC        1 <0>        0.04551
     19 H10         0.3110   -3.1864    1.9807 HC        1 <0>        0.04551
     20 H11         3.0084   -2.8899    1.8980 HC        1 <0>        0.06232
     21 H12         1.5252   -1.0662    3.8508 H1        1 <0>        0.03052
     22 H13         3.9323   -0.5127    3.5276 HC        1 <0>        0.03773
     23 H14         4.9256   -1.4891    2.4288 HC        1 <0>        0.03773
     24 H15         4.2361   -2.2227    3.8898 HC        1 <0>        0.03773
     25 H16         1.1426   -3.0422    4.8225 HO        1 <0>        0.39658
@<TRIPOS>BOND
     1    1    2 1
     2    1    3 1
     3    2    4 1
     4    3    5 1
     5    4    6 1
     6    5    7 1
     7    6    7 1
     8    6    8 1
     9    7    9 1
    10    1   10 1
    11    1   11 1
    12    2   12 1
    13    2   13 1
    14    3   14 1
    15    3   15 1
    16    4   16 1
    17    4   17 1
    18    5   18 1
    19    5   19 1
    20    6   20 1
    21    7   21 1
    22    8   22 1
    23    8   23 1
    24    8   24 1
    25    9   25 1
@<TRIPOS>SUBSTRUCTURE
     1 <0>         1 GROUP 0 A     ****
