@<TRIPOS>MOLECULE
AlkEthOH_r796
   29    29     1     0     0
SMALL
USER_CHARGES

@<TRIPOS>ATOM
      1 C1          0.2495   -0.6828    1.3794 CT        1 <0>       -0.09965
      2 C2         -0.4301   -0.3460   -1.1394 CT        1 <0>       -0.09281
      3 C3         -0.7959    0.2777    1.9583 CT        1 <0>        0.14350
      4 C4         -0.3537    2.1684    0.5599 CT        1 <0>        0.32418
      5 C5          0.4130    0.9309   -1.3512 CT        1 <0>        0.15769
      6 C6         -0.0788   -1.3399    0.0109 CT        1 <0>       -0.02876
      7 C7          1.7182    0.6605   -2.0924 CT        1 <0>       -0.09445
      8 C8          1.1243   -2.2191   -0.3916 CT        1 <0>       -0.09193
      9 C9         -1.2891   -2.2885    0.1849 CT        1 <0>       -0.09193
     10 O1         -1.3098    1.2228    1.0290 OS        1 <0>       -0.45066
     11 O2          0.7525    1.6159   -0.1478 OS        1 <0>       -0.44829
     12 H1          1.2119   -0.1623    1.3091 HC        1 <0>        0.05307
     13 H2          0.4219   -1.4698    2.1269 HC        1 <0>        0.05307
     14 H3         -1.4676   -0.0164   -0.9929 HC        1 <0>        0.04969
     15 H4         -0.4683   -0.8971   -2.0898 HC        1 <0>        0.04969
     16 H5         -1.6510   -0.3008    2.3238 H1        1 <0>        0.04262
     17 H6         -0.3846    0.8056    2.8268 H1        1 <0>        0.04262
     18 H7         -0.8726    2.8832   -0.0880 H2        1 <0>        0.05941
     19 H8          0.0383    2.7329    1.4129 H2        1 <0>        0.05941
     20 H9         -0.1666    1.6138   -1.9846 H1        1 <0>        0.02834
     21 H10         2.3424   -0.0166   -1.5101 HC        1 <0>        0.04383
     22 H11         2.2571    1.5945   -2.2480 HC        1 <0>        0.04383
     23 H12         1.5083    0.2061   -3.0601 HC        1 <0>        0.04383
     24 H13         0.9153   -2.6878   -1.3457 HC        1 <0>        0.03395
     25 H14         1.2764   -2.9776    0.3669 HC        1 <0>        0.03395
     26 H15         2.0062   -1.5950   -0.4720 HC        1 <0>        0.03395
     27 H16        -1.5150   -2.7445   -0.7700 HC        1 <0>        0.03395
     28 H17        -2.1366   -1.7125    0.5322 HC        1 <0>        0.03395
     29 H18        -1.0339   -3.0501    0.9102 HC        1 <0>        0.03395
@<TRIPOS>BOND
     1    1    3 1
     2    1    6 1
     3    2    5 1
     4    2    6 1
     5    3   10 1
     6    4   10 1
     7    4   11 1
     8    5    7 1
     9    5   11 1
    10    6    8 1
    11    6    9 1
    12    1   12 1
    13    1   13 1
    14    2   14 1
    15    2   15 1
    16    3   16 1
    17    3   17 1
    18    4   18 1
    19    4   19 1
    20    5   20 1
    21    7   21 1
    22    7   22 1
    23    7   23 1
    24    8   24 1
    25    8   25 1
    26    8   26 1
    27    9   27 1
    28    9   28 1
    29    9   29 1
@<TRIPOS>SUBSTRUCTURE
     1 <0>         1 GROUP 0 A     ****
