@<TRIPOS>MOLECULE
AlkEthOH_r1079
   26    26     1     0     0
SMALL
USER_CHARGES

@<TRIPOS>ATOM
      1 C1          1.9830    0.4171    1.1340 CT        1 <0>       -0.06821
      2 C2          2.0355   -1.0773    0.7845 CT        1 <0>       -0.08764
      3 C3          1.4335    1.3349    0.0340 CT        1 <0>       -0.11221
      4 C4          0.6668   -1.7249    0.6083 CT        1 <0>        0.13030
      5 C5          0.0325    1.8767    0.3359 CT        1 <0>        0.13413
      6 C6         -1.1930   -1.1957   -0.7941 CT        1 <0>        0.12315
      7 C7         -1.3736    0.3216   -0.8174 CT        1 <0>        0.10705
      8 C8         -2.8370    0.6956   -1.0088 CT        1 <0>       -0.10867
      9 O1          0.1997   -1.4972   -0.7191 OS        1 <0>       -0.42684
     10 O2         -0.9473    0.8491    0.4426 OS        1 <0>       -0.42353
     11 H1          1.4341    0.5592    2.0727 HC        1 <0>        0.03856
     12 H2          3.0156    0.7286    1.3402 HC        1 <0>        0.03856
     13 H3          2.6421   -1.2181   -0.1181 HC        1 <0>        0.04851
     14 H4          2.5516   -1.5860    1.6080 HC        1 <0>        0.04851
     15 H5          2.1013    2.2013   -0.0535 HC        1 <0>        0.05199
     16 H6          1.4578    0.8281   -0.9357 HC        1 <0>        0.05199
     17 H7          0.7598   -2.8099    0.7281 H1        1 <0>        0.04126
     18 H8         -0.0296   -1.3671    1.3754 H1        1 <0>        0.04126
     19 H9          0.0491    2.4049    1.2958 H1        1 <0>        0.04302
     20 H10        -0.2728    2.6093   -0.4209 H1        1 <0>        0.04302
     21 H11        -1.7421   -1.6708    0.0278 H1        1 <0>        0.05167
     22 H12        -1.5621   -1.6223   -1.7329 H1        1 <0>        0.05167
     23 H13        -0.7815    0.7424   -1.6396 H1        1 <0>        0.05396
     24 H14        -3.4375    0.2832   -0.1974 HC        1 <0>        0.04283
     25 H15        -3.2035    0.2986   -1.9559 HC        1 <0>        0.04283
     26 H16        -2.9481    1.7803   -1.0140 HC        1 <0>        0.04283
@<TRIPOS>BOND
     1    1    2 1
     2    1    3 1
     3    2    4 1
     4    3    5 1
     5    4    9 1
     6    5   10 1
     7    6    7 1
     8    6    9 1
     9    7    8 1
    10    7   10 1
    11    1   11 1
    12    1   12 1
    13    2   13 1
    14    2   14 1
    15    3   15 1
    16    3   16 1
    17    4   17 1
    18    4   18 1
    19    5   19 1
    20    5   20 1
    21    6   21 1
    22    6   22 1
    23    7   23 1
    24    8   24 1
    25    8   25 1
    26    8   26 1
@<TRIPOS>SUBSTRUCTURE
     1 <0>         1 GROUP 0 A     ****
