@<TRIPOS>MOLECULE
AlkEthOH_r550
   32    32     1     0     0
SMALL
USER_CHARGES

@<TRIPOS>ATOM
      1 C1          1.2088    1.0128   -1.0032 CT        1 <0>       -0.13182
      2 C2         -1.6560   -0.0384   -0.7731 CT        1 <0>       -0.13174
      3 C3          1.2990   -0.2291   -1.8884 CT        1 <0>        0.13755
      4 C4         -0.9997   -0.9172   -1.8431 CT        1 <0>        0.13755
      5 C5          1.0992    0.7580    0.5189 CT        1 <0>        0.17368
      6 C6         -1.2140   -0.3005    0.6806 CT        1 <0>        0.17368
      7 C7          0.8196    2.0801    1.2442 CT        1 <0>       -0.10437
      8 C8          2.4649    0.2452    1.0245 CT        1 <0>       -0.10437
      9 C9         -1.9478    0.6524    1.6360 CT        1 <0>       -0.10437
     10 C10        -1.6299   -1.7329    1.0801 CT        1 <0>       -0.10437
     11 O1          0.3570   -1.2442   -1.5738 OS        1 <0>       -0.39996
     12 O2          0.1990   -0.2862    0.8973 OS        1 <0>       -0.41042
     13 H1          2.0836    1.6453   -1.2078 HC        1 <0>        0.04621
     14 H2          0.3640    1.6183   -1.3410 HC        1 <0>        0.04621
     15 H3         -1.4866    1.0130   -1.0194 HC        1 <0>        0.04621
     16 H4         -2.7449   -0.1572   -0.8594 HC        1 <0>        0.04621
     17 H5          1.2033    0.0480   -2.9449 H1        1 <0>        0.04290
     18 H6          2.2921   -0.6772   -1.7767 H1        1 <0>        0.04290
     19 H7         -1.5399   -1.8698   -1.8856 H1        1 <0>        0.04290
     20 H8         -1.0989   -0.4634   -2.8363 H1        1 <0>        0.04290
     21 H9          0.7431    1.8984    2.3128 HC        1 <0>        0.04271
     22 H10        -0.1135    2.5025    0.8815 HC        1 <0>        0.04271
     23 H11         1.6309    2.7772    1.0530 HC        1 <0>        0.04271
     24 H12         2.4003    0.0630    2.0903 HC        1 <0>        0.04271
     25 H13         3.2196    0.9956    0.8229 HC        1 <0>        0.04271
     26 H14         2.7099   -0.6741    0.5065 HC        1 <0>        0.04271
     27 H15        -1.6279    0.4577    2.6553 HC        1 <0>        0.04271
     28 H16        -3.0184    0.4910    1.5540 HC        1 <0>        0.04271
     29 H17        -1.7135    1.6791    1.3713 HC        1 <0>        0.04271
     30 H18        -1.3197   -1.9179    2.1013 HC        1 <0>        0.04271
     31 H19        -1.1483   -2.4383    0.4140 HC        1 <0>        0.04271
     32 H20        -2.7063   -1.8229    0.9986 HC        1 <0>        0.04271
@<TRIPOS>BOND
     1    1    3 1
     2    1    5 1
     3    2    4 1
     4    2    6 1
     5    3   11 1
     6    4   11 1
     7    5    7 1
     8    5    8 1
     9    5   12 1
    10    6    9 1
    11    6   10 1
    12    6   12 1
    13    1   13 1
    14    1   14 1
    15    2   15 1
    16    2   16 1
    17    3   17 1
    18    3   18 1
    19    4   19 1
    20    4   20 1
    21    7   21 1
    22    7   22 1
    23    7   23 1
    24    8   24 1
    25    8   25 1
    26    8   26 1
    27    9   27 1
    28    9   28 1
    29    9   29 1
    30   10   30 1
    31   10   31 1
    32   10   32 1
@<TRIPOS>SUBSTRUCTURE
     1 <0>         1 GROUP 0 A     ****
