@<TRIPOS>MOLECULE
AlkEthOH_r969
   20    20     1     0     0
SMALL
USER_CHARGES

@<TRIPOS>ATOM
      1 C1          0.9608   -0.4488    0.2807 CT        1 <0>       -0.10965
      2 C2          1.5793   -1.0884   -0.9574 CT        1 <0>       -0.07461
      3 C3          1.8715    0.6337    0.8415 CT        1 <0>        0.13429
      4 C4          1.9841   -0.0075   -1.9678 CT        1 <0>       -0.07644
      5 C5          2.8585    1.0621   -1.2911 CT        1 <0>        0.33172
      6 C6          2.6699   -0.6332   -3.1805 CT        1 <0>       -0.08716
      7 O1          2.1862    1.6092   -0.1519 OS        1 <0>       -0.45408
      8 O2          4.1372    0.5314   -0.9542 OH        1 <0>       -0.62215
      9 H1         -0.0001    0.0000    0.0003 HC        1 <0>        0.04927
     10 H2          0.7600   -1.2095    1.0424 HC        1 <0>        0.04927
     11 H3          2.4550   -1.6800   -0.6623 HC        1 <0>        0.05066
     12 H4          0.8621   -1.7828   -1.4103 HC        1 <0>        0.05066
     13 H5          1.3679    1.1502    1.6650 H1        1 <0>        0.04999
     14 H6          2.7972    0.2062    1.2434 H1        1 <0>        0.04999
     15 H7          1.0617    0.4831   -2.3079 HC        1 <0>        0.05780
     16 H8          3.0195    1.8850   -1.9970 H2        1 <0>        0.06476
     17 H9          3.5893   -1.1273   -2.8705 HC        1 <0>        0.04095
     18 H10         2.9087    0.1398   -3.9091 HC        1 <0>        0.04095
     19 H11         2.0090   -1.3658   -3.6410 HC        1 <0>        0.04095
     20 H12         4.6337    1.2513   -0.5349 HO        1 <0>        0.41283
@<TRIPOS>BOND
     1    1    2 1
     2    1    3 1
     3    2    4 1
     4    3    7 1
     5    4    5 1
     6    4    6 1
     7    5    7 1
     8    5    8 1
     9    1    9 1
    10    1   10 1
    11    2   11 1
    12    2   12 1
    13    3   13 1
    14    3   14 1
    15    4   15 1
    16    5   16 1
    17    6   17 1
    18    6   18 1
    19    6   19 1
    20    8   20 1
@<TRIPOS>SUBSTRUCTURE
     1 <0>         1 GROUP 0 A     ****
