@<TRIPOS>MOLECULE
AlkEthOH_r482
   27    27     1     0     0
SMALL
USER_CHARGES

@<TRIPOS>ATOM
      1 C1         -0.9700   -0.8418   -1.6461 CT        1 <0>       -0.11089
      2 C2         -1.3890    0.4262   -0.8908 CT        1 <0>       -0.06238
      3 C3          0.9984    0.6917    0.1566 CT        1 <0>       -0.13569
      4 C4         -0.8655   -2.0934   -0.7720 CT        1 <0>        0.12745
      5 C5         -0.0797   -1.3276    1.3537 CT        1 <0>        0.13065
      6 C6          0.8099   -0.0934    1.4575 CT        1 <0>        0.13174
      7 C7         -0.2390    1.3630   -0.4670 CT        1 <0>        0.15976
      8 C8         -0.7931    2.4628    0.4481 CT        1 <0>       -0.12877
      9 O1          0.2106   -2.0470    0.1573 OS        1 <0>       -0.40882
     10 O2          2.1041   -0.5501    1.8740 OH        1 <0>       -0.59724
     11 O3          0.2132    2.0096   -1.6714 OH        1 <0>       -0.60018
     12 H1         -1.7332   -1.0465   -2.4079 HC        1 <0>        0.05884
     13 H2         -0.0297   -0.6768   -2.1834 HC        1 <0>        0.05884
     14 H3         -2.0357    0.9954   -1.5747 HC        1 <0>        0.04938
     15 H4         -2.0290    0.1690   -0.0406 HC        1 <0>        0.04938
     16 H5          1.7542    1.4702    0.3444 HC        1 <0>        0.05948
     17 H6          1.4997    0.0607   -0.5903 HC        1 <0>        0.05948
     18 H7         -1.8114   -2.3123   -0.2622 H1        1 <0>        0.04538
     19 H8         -0.6651   -2.9466   -1.4299 H1        1 <0>        0.04538
     20 H9          0.1315   -2.0097    2.1850 H1        1 <0>        0.05483
     21 H10        -1.1379   -1.0628    1.4319 H1        1 <0>        0.05483
     22 H11         0.4398    0.5572    2.2566 H1        1 <0>        0.03141
     23 H12         0.0143    3.1246    0.7486 HC        1 <0>        0.04378
     24 H13        -1.2374    2.0100    1.3300 HC        1 <0>        0.04378
     25 H14        -1.5483    3.0321   -0.0865 HC        1 <0>        0.04378
     26 H15         2.6391    0.2452    2.0034 HO        1 <0>        0.39894
     27 H16         0.9324    2.5943   -1.4002 HO        1 <0>        0.39686
@<TRIPOS>BOND
     1    1    2 1
     2    1    4 1
     3    2    7 1
     4    3    6 1
     5    3    7 1
     6    4    9 1
     7    5    6 1
     8    5    9 1
     9    6   10 1
    10    7    8 1
    11    7   11 1
    12    1   12 1
    13    1   13 1
    14    2   14 1
    15    2   15 1
    16    3   16 1
    17    3   17 1
    18    4   18 1
    19    4   19 1
    20    5   20 1
    21    5   21 1
    22    6   22 1
    23    8   23 1
    24    8   24 1
    25    8   25 1
    26   10   26 1
    27   11   27 1
@<TRIPOS>SUBSTRUCTURE
     1 <0>         1 GROUP 0 A     ****
