@<TRIPOS>MOLECULE
AlkEthOH_r838
   22    22     1     0     0
SMALL
USER_CHARGES

@<TRIPOS>ATOM
      1 C1         -1.5213    0.3684    0.3389 CT        1 <0>       -0.07293
      2 C2         -0.6883   -0.7244    1.0189 CT        1 <0>       -0.10607
      3 C3          0.8222    0.5965   -0.2782 CT        1 <0>       -0.06600
      4 C4         -0.5838    1.0812   -0.6463 CT        1 <0>       -0.06911
      5 C5          0.5866   -0.8401    0.1831 CT        1 <0>        0.14024
      6 C6         -0.7149    2.5953   -0.6092 CT        1 <0>       -0.08592
      7 C7          1.7568   -1.4265    0.9570 CT        1 <0>       -0.11354
      8 O1          0.3179   -1.6722   -0.9450 OH        1 <0>       -0.59684
      9 H1         -2.3667   -0.0725   -0.2019 HC        1 <0>        0.04258
     10 H2         -1.9379    1.0485    1.0902 HC        1 <0>        0.04258
     11 H3         -0.4572   -0.4085    2.0435 HC        1 <0>        0.04564
     12 H4         -1.2473   -1.6648    1.0689 HC        1 <0>        0.04564
     13 H5          1.4915    0.6572   -1.1430 HC        1 <0>        0.05441
     14 H6          1.2424    1.2040    0.5328 HC        1 <0>        0.05441
     15 H7         -0.8220    0.7394   -1.6624 HC        1 <0>        0.06118
     16 H8         -0.4842    2.9685    0.3899 HC        1 <0>        0.03334
     17 H9         -1.7328    2.8912   -0.8680 HC        1 <0>        0.03334
     18 H10        -0.0250    3.0501   -1.3219 HC        1 <0>        0.03334
     19 H11         2.6382   -1.4871    0.3167 HC        1 <0>        0.04272
     20 H12         1.5094   -2.4288    1.3099 HC        1 <0>        0.04272
     21 H13         1.9904   -0.7983    1.8180 HC        1 <0>        0.04272
     22 H14         0.0478   -2.5335   -0.5922 HO        1 <0>        0.39555
@<TRIPOS>BOND
     1    1    2 1
     2    1    4 1
     3    2    5 1
     4    3    4 1
     5    3    5 1
     6    4    6 1
     7    5    7 1
     8    5    8 1
     9    1    9 1
    10    1   10 1
    11    2   11 1
    12    2   12 1
    13    3   13 1
    14    3   14 1
    15    4   15 1
    16    6   16 1
    17    6   17 1
    18    6   18 1
    19    7   19 1
    20    7   20 1
    21    7   21 1
    22    8   22 1
@<TRIPOS>SUBSTRUCTURE
     1 <0>         1 GROUP 0 A     ****
