@<TRIPOS>MOLECULE
AlkEthOH_r1038
   24    24     1     0     0
SMALL
USER_CHARGES

@<TRIPOS>ATOM
      1 C1          0.4948    0.7975   -1.5163 CT        1 <0>       -0.10787
      2 C2          0.5839   -1.1847    0.1984 CT        1 <0>       -0.13553
      3 C3         -1.0121    0.6701   -1.7543 CT        1 <0>        0.14023
      4 C4         -1.7040    0.7647    0.5428 CT        1 <0>        0.32865
      5 C5          1.2103   -0.4766   -1.0210 CT        1 <0>       -0.04395
      6 C6          0.2749   -0.3079    1.4231 CT        1 <0>        0.34923
      7 C7          2.6848   -0.1539   -0.7505 CT        1 <0>       -0.09681
      8 O1         -1.7391    0.0613   -0.6946 OS        1 <0>       -0.45139
      9 O2         -0.4171    0.9061    1.1386 OS        1 <0>       -0.44362
     10 O3         -0.3764   -1.0766    2.4337 OH        1 <0>       -0.62760
     11 H1          0.9566    1.1168   -2.4604 HC        1 <0>        0.05505
     12 H2          0.6858    1.6229   -0.8207 HC        1 <0>        0.05505
     13 H3         -0.3263   -1.7090   -0.1179 HC        1 <0>        0.05897
     14 H4          1.2418   -2.0035    0.5217 HC        1 <0>        0.05897
     15 H5         -1.4454    1.6531   -1.9722 H1        1 <0>        0.04373
     16 H6         -1.1764    0.0484   -2.6414 H1        1 <0>        0.04373
     17 H7         -2.1180    1.7680    0.3949 H2        1 <0>        0.07168
     18 H8         -2.3665    0.2469    1.2445 H2        1 <0>        0.07168
     19 H9          1.1906   -1.2016   -1.8458 HC        1 <0>        0.04533
     20 H10         1.2484    0.0100    1.8532 H2        1 <0>        0.06735
     21 H11         2.7561    0.5637    0.0625 HC        1 <0>        0.03507
     22 H12         3.1341    0.2681   -1.6454 HC        1 <0>        0.03507
     23 H13         3.2112   -1.0643   -0.4764 HC        1 <0>        0.03507
     24 H14         0.2345   -1.7904    2.6720 HO        1 <0>        0.41191
@<TRIPOS>BOND
     1    1    3 1
     2    1    5 1
     3    2    5 1
     4    2    6 1
     5    3    8 1
     6    4    8 1
     7    4    9 1
     8    5    7 1
     9    6    9 1
    10    6   10 1
    11    1   11 1
    12    1   12 1
    13    2   13 1
    14    2   14 1
    15    3   15 1
    16    3   16 1
    17    4   17 1
    18    4   18 1
    19    5   19 1
    20    6   20 1
    21    7   21 1
    22    7   22 1
    23    7   23 1
    24   10   24 1
@<TRIPOS>SUBSTRUCTURE
     1 <0>         1 GROUP 0 A     ****
