@<TRIPOS>MOLECULE
AlkEthOH_r475
   20    20     1     0     0
SMALL
USER_CHARGES

@<TRIPOS>ATOM
      1 C1         -0.1399    0.6370    1.6781 CT        1 <0>       -0.10967
      2 C2         -0.1269   -0.7738    1.0940 CT        1 <0>       -0.10423
      3 C3         -0.9376    1.5757    0.7853 CT        1 <0>        0.12655
      4 C4         -0.4965    0.2917   -1.1622 CT        1 <0>        0.14059
      5 C5          0.2973   -0.7613   -0.3809 CT        1 <0>        0.11638
      6 C6          0.1320   -2.1429   -1.0126 CT        1 <0>       -0.12236
      7 O1         -0.4089    1.5764   -0.5391 OS        1 <0>       -0.40018
      8 O2          1.6805   -0.4029   -0.4626 OH        1 <0>       -0.58208
      9 H1         -0.5606    0.6246    2.6891 HC        1 <0>        0.05525
     10 H2          0.8923    0.9998    1.7548 HC        1 <0>        0.05525
     11 H3          0.5571   -1.3945    1.6854 HC        1 <0>        0.04598
     12 H4         -1.1309   -1.2062    1.1899 HC        1 <0>        0.04598
     13 H5         -1.9976    1.2974    0.7563 H1        1 <0>        0.04568
     14 H6         -0.8746    2.5985    1.1700 H1        1 <0>        0.04568
     15 H7         -0.0907    0.4069   -2.1732 H1        1 <0>        0.05679
     16 H8         -1.5534    0.0140   -1.2550 H1        1 <0>        0.05679
     17 H9          0.4383   -2.1095   -2.0565 HC        1 <0>        0.04398
     18 H10        -0.9103   -2.4513   -0.9557 HC        1 <0>        0.04398
     19 H11         0.7484   -2.8663   -0.4821 HC        1 <0>        0.04398
     20 H12         2.1641   -1.0763    0.0372 HO        1 <0>        0.39566
@<TRIPOS>BOND
     1    1    2 1
     2    1    3 1
     3    2    5 1
     4    3    7 1
     5    4    5 1
     6    4    7 1
     7    5    6 1
     8    5    8 1
     9    1    9 1
    10    1   10 1
    11    2   11 1
    12    2   12 1
    13    3   13 1
    14    3   14 1
    15    4   15 1
    16    4   16 1
    17    6   17 1
    18    6   18 1
    19    6   19 1
    20    8   20 1
@<TRIPOS>SUBSTRUCTURE
     1 <0>         1 GROUP 0 A     ****
