@<TRIPOS>MOLECULE
AlkEthOH_r329
   29    29     1     0     0
SMALL
USER_CHARGES

@<TRIPOS>ATOM
      1 C1          0.5296   -0.2437   -2.1649 CT        1 <0>       -0.06940
      2 C2          0.0855   -1.5313   -1.4760 CT        1 <0>       -0.06940
      3 C3         -0.1921    1.0142   -1.6993 CT        1 <0>       -0.10398
      4 C4          0.6548   -1.6640   -0.0690 CT        1 <0>       -0.10398
      5 C5         -0.8458    0.3496    0.6804 CT        1 <0>       -0.09016
      6 C6         -0.1101    1.3748   -0.2062 CT        1 <0>        0.16418
      7 C7         -0.1452   -0.9722    1.0472 CT        1 <0>        0.16418
      8 C8          1.3144    1.6963    0.2456 CT        1 <0>       -0.10056
      9 C9         -1.2008   -1.9373    1.6155 CT        1 <0>       -0.10056
     10 O1         -0.8562    2.6070   -0.0946 OH        1 <0>       -0.60274
     11 O2          0.7658   -0.6934    2.1213 OH        1 <0>       -0.60274
     12 H1          1.6139   -0.1145   -2.0662 HC        1 <0>        0.04147
     13 H2          0.3396   -0.3535   -3.2404 HC        1 <0>        0.04147
     14 H3         -1.0056   -1.6287   -1.4807 HC        1 <0>        0.04147
     15 H4          0.4726   -2.3686   -2.0710 HC        1 <0>        0.04147
     16 H5          0.1885    1.8617   -2.2870 HC        1 <0>        0.04438
     17 H6         -1.2499    0.9390   -1.9893 HC        1 <0>        0.04438
     18 H7          0.7290   -2.7347    0.1684 HC        1 <0>        0.04438
     19 H8          1.6991   -1.3277   -0.0600 HC        1 <0>        0.04438
     20 H9         -1.1240    0.8557    1.6169 HC        1 <0>        0.05644
     21 H10        -1.8092    0.1287    0.1983 HC        1 <0>        0.05644
     22 H11         1.3171    1.9439    1.3053 HC        1 <0>        0.04527
     23 H12         1.6974    2.5433   -0.3205 HC        1 <0>        0.04527
     24 H13         1.9568    0.8340    0.0779 HC        1 <0>        0.04527
     25 H14        -1.7567   -1.4364    2.4009 HC        1 <0>        0.04527
     26 H15        -0.7037   -2.8124    2.0202 HC        1 <0>        0.04527
     27 H16        -1.8770   -2.2350    0.8212 HC        1 <0>        0.04527
     28 H17        -1.7483    2.3946   -0.3929 HO        1 <0>        0.39363
     29 H18         1.1156   -1.5499    2.4020 HO        1 <0>        0.39363
@<TRIPOS>BOND
     1    1    2 1
     2    1    3 1
     3    2    4 1
     4    3    6 1
     5    4    7 1
     6    5    6 1
     7    5    7 1
     8    6    8 1
     9    6   10 1
    10    7    9 1
    11    7   11 1
    12    1   12 1
    13    1   13 1
    14    2   14 1
    15    2   15 1
    16    3   16 1
    17    3   17 1
    18    4   18 1
    19    4   19 1
    20    5   20 1
    21    5   21 1
    22    8   22 1
    23    8   23 1
    24    8   24 1
    25    9   25 1
    26    9   26 1
    27    9   27 1
    28   10   28 1
    29   11   29 1
@<TRIPOS>SUBSTRUCTURE
     1 <0>         1 GROUP 0 A     ****
