@<TRIPOS>MOLECULE
AlkEthOH_r439
   31    31     1     0     0
SMALL
USER_CHARGES

@<TRIPOS>ATOM
      1 C1          1.6071   -0.6112   -1.6741 CT        1 <0>       -0.06270
      2 C2          0.2676   -1.2677   -2.0202 CT        1 <0>       -0.11892
      3 C3          1.6420    0.3562   -0.4820 CT        1 <0>       -0.12943
      4 C4         -0.7958   -0.2930   -2.5208 CT        1 <0>        0.13507
      5 C5         -1.9496    0.2341   -0.4859 CT        1 <0>        0.07799
      6 C6          1.2010   -0.1900    0.8921 CT        1 <0>        0.37435
      7 C7         -1.2048    0.4086    0.8458 CT        1 <0>        0.35248
      8 C8          2.0078   -1.4419    1.2612 CT        1 <0>       -0.08072
      9 C9         -2.1714    0.1031    1.9950 CT        1 <0>       -0.11414
     10 O1         -1.1411    0.7004   -1.5657 OS        1 <0>       -0.43002
     11 O2         -0.1719   -0.5816    0.9317 OS        1 <0>       -0.46220
     12 O3          1.5031    0.8131    1.8703 OH        1 <0>       -0.61000
     13 O4         -0.7940    1.7698    0.9526 OH        1 <0>       -0.62288
     14 H1          2.3431   -1.4065   -1.5040 HC        1 <0>        0.03903
     15 H2          1.9665   -0.0688   -2.5584 HC        1 <0>        0.03903
     16 H3          0.4491   -1.9998   -2.8172 HC        1 <0>        0.05897
     17 H4         -0.1033   -1.8413   -1.1666 HC        1 <0>        0.05897
     18 H5          2.6761    0.7178   -0.3866 HC        1 <0>        0.06433
     19 H6          1.0730    1.2577   -0.7298 HC        1 <0>        0.06433
     20 H7         -0.4140    0.2319   -3.4036 H1        1 <0>        0.04620
     21 H8         -1.6961   -0.8312   -2.8404 H1        1 <0>        0.04620
     22 H9         -2.2588   -0.8076   -0.6348 H1        1 <0>        0.05878
     23 H10        -2.8482    0.8612   -0.4942 H1        1 <0>        0.05878
     24 H11         1.6822   -1.8097    2.2302 HC        1 <0>        0.05160
     25 H12         3.0640   -1.1919    1.3048 HC        1 <0>        0.05160
     26 H13         1.8479   -2.2100    0.5097 HC        1 <0>        0.05160
     27 H14        -1.6569    0.2229    2.9450 HC        1 <0>        0.05288
     28 H15        -2.5311   -0.9188    1.9060 HC        1 <0>        0.05288
     29 H16        -3.0149    0.7875    1.9528 HC        1 <0>        0.05288
     30 H17         2.4594    0.9524    1.8250 HO        1 <0>        0.41819
     31 H18        -1.6023    2.3045    0.9250 HO        1 <0>        0.42487
@<TRIPOS>BOND
     1    1    2 1
     2    1    3 1
     3    2    4 1
     4    3    6 1
     5    4   10 1
     6    5    7 1
     7    5   10 1
     8    6    8 1
     9    6   11 1
    10    6   12 1
    11    7    9 1
    12    7   11 1
    13    7   13 1
    14    1   14 1
    15    1   15 1
    16    2   16 1
    17    2   17 1
    18    3   18 1
    19    3   19 1
    20    4   20 1
    21    4   21 1
    22    5   22 1
    23    5   23 1
    24    8   24 1
    25    8   25 1
    26    8   26 1
    27    9   27 1
    28    9   28 1
    29    9   29 1
    30   12   30 1
    31   13   31 1
@<TRIPOS>SUBSTRUCTURE
     1 <0>         1 GROUP 0 A     ****
