@<TRIPOS>MOLECULE
AlkEthOH_r1045
   24    24     1     0     0
SMALL
USER_CHARGES

@<TRIPOS>ATOM
      1 C1         -1.6715    0.2516   -0.5442 CT        1 <0>       -0.10324
      2 C2         -1.5504   -1.2498   -0.7648 CT        1 <0>        0.14079
      3 C3          0.4811   -1.9663    0.2301 CT        1 <0>        0.35059
      4 C4         -0.3393    1.0320   -0.6234 CT        1 <0>       -0.05819
      5 C5          0.8223    0.4328    0.2226 CT        1 <0>        0.35729
      6 C6         -0.6332    2.4993   -0.2753 CT        1 <0>       -0.09297
      7 C7          2.1016    1.2667    0.0737 CT        1 <0>       -0.12292
      8 O1         -0.9274   -1.8372    0.3684 OS        1 <0>       -0.44179
      9 O2          1.1820   -0.8512   -0.3074 OS        1 <0>       -0.49925
     10 O3          0.5347    0.4221    1.6204 OH        1 <0>       -0.59429
     11 H1         -2.3613    0.6585   -1.2941 HC        1 <0>        0.05700
     12 H2         -2.1264    0.4270    0.4395 HC        1 <0>        0.05700
     13 H3         -2.5569   -1.6769   -0.8295 H1        1 <0>        0.04820
     14 H4         -1.0290   -1.4975   -1.6969 H1        1 <0>        0.04820
     15 H5          0.8969   -2.2024    1.2154 H2        1 <0>        0.05321
     16 H6          0.6880   -2.8277   -0.4141 H2        1 <0>        0.05321
     17 H7         -0.0274    0.9975   -1.6762 HC        1 <0>        0.05980
     18 H8         -0.9450    2.5674    0.7623 HC        1 <0>        0.04036
     19 H9         -1.4254    2.8698   -0.9185 HC        1 <0>        0.04036
     20 H10         0.2645    3.0913   -0.4253 HC        1 <0>        0.04036
     21 H11         2.8924    0.8256    0.6735 HC        1 <0>        0.05284
     22 H12         1.9128    2.2814    0.4119 HC        1 <0>        0.05284
     23 H13         2.4033    1.2822   -0.9697 HC        1 <0>        0.05284
     24 H14         1.3093    0.0353    2.0548 HO        1 <0>        0.40776
@<TRIPOS>BOND
     1    1    2 1
     2    1    4 1
     3    2    8 1
     4    3    8 1
     5    3    9 1
     6    4    5 1
     7    4    6 1
     8    5    7 1
     9    5    9 1
    10    5   10 1
    11    1   11 1
    12    1   12 1
    13    2   13 1
    14    2   14 1
    15    3   15 1
    16    3   16 1
    17    4   17 1
    18    6   18 1
    19    6   19 1
    20    6   20 1
    21    7   21 1
    22    7   22 1
    23    7   23 1
    24   10   24 1
@<TRIPOS>SUBSTRUCTURE
     1 <0>         1 GROUP 0 A     ****
