@<TRIPOS>MOLECULE
AlkEthOH_r239
   23    23     1     0     0
SMALL
USER_CHARGES

@<TRIPOS>ATOM
      1 C1         -1.2263   -0.7112    1.1590 CT        1 <0>       -0.11075
      2 C2          0.4634   -0.7501   -0.6814 CT        1 <0>       -0.13818
      3 C3         -0.8598    0.7452    1.3930 CT        1 <0>        0.12977
      4 C4         -0.9678   -1.1082   -0.2895 CT        1 <0>        0.14347
      5 C5          0.8111    0.7133   -0.3560 CT        1 <0>        0.15523
      6 C6          0.1148    1.6988   -1.3061 CT        1 <0>       -0.10255
      7 C7          2.3280    0.9113   -0.4832 CT        1 <0>       -0.10255
      8 O1          0.4887    1.0112    1.0119 OS        1 <0>       -0.41277
      9 O2         -1.1522   -2.5102   -0.4477 OH        1 <0>       -0.59744
     10 H1         -0.6250   -1.3519    1.8177 HC        1 <0>        0.06473
     11 H2         -2.2733   -0.8960    1.4248 HC        1 <0>        0.06473
     12 H3          1.1395   -1.4204   -0.1320 HC        1 <0>        0.05638
     13 H4          0.6299   -0.9696   -1.7434 HC        1 <0>        0.05638
     14 H5         -1.5400    1.4198    0.8632 H1        1 <0>        0.04789
     15 H6         -0.9502    0.9786    2.4590 H1        1 <0>        0.04789
     16 H7         -1.6813   -0.6041   -0.9506 H1        1 <0>        0.03311
     17 H8          0.3901    2.7144   -1.0375 HC        1 <0>        0.04425
     18 H9         -0.9615    1.5804   -1.2232 HC        1 <0>        0.04425
     19 H10         0.4252    1.4962   -2.3268 HC        1 <0>        0.04425
     20 H11         2.5784    1.9432   -0.2544 HC        1 <0>        0.04425
     21 H12         2.6390    0.6792   -1.4978 HC        1 <0>        0.04425
     22 H13         2.8383    0.2514    0.2125 HC        1 <0>        0.04425
     23 H14        -0.9770   -2.7106   -1.3809 HO        1 <0>        0.39916
@<TRIPOS>BOND
     1    1    3 1
     2    1    4 1
     3    2    4 1
     4    2    5 1
     5    3    8 1
     6    4    9 1
     7    5    6 1
     8    5    7 1
     9    5    8 1
    10    1   10 1
    11    1   11 1
    12    2   12 1
    13    2   13 1
    14    3   14 1
    15    3   15 1
    16    4   16 1
    17    6   17 1
    18    6   18 1
    19    6   19 1
    20    7   20 1
    21    7   21 1
    22    7   22 1
    23    9   23 1
@<TRIPOS>SUBSTRUCTURE
     1 <0>         1 GROUP 0 A     ****
