@<TRIPOS>MOLECULE
AlkEthOH_r201
   15    15     1     0     0
SMALL
USER_CHARGES

@<TRIPOS>ATOM
      1 C1          1.4031    0.6605   -0.3794 CT        1 <0>        0.08205
      2 C2          0.7925   -0.5069    0.3947 CT        1 <0>        0.10432
      3 C3         -0.5513    0.1928    0.1079 CT        1 <0>        0.32926
      4 C4         -1.3547    0.5785    1.3383 CT        1 <0>       -0.12151
      5 O1          0.1352    1.3517   -0.4331 OS        1 <0>       -0.44810
      6 O2          0.9801   -1.8119   -0.1780 OH        1 <0>       -0.55309
      7 O3         -1.4048   -0.4647   -0.8504 OH        1 <0>       -0.56577
      8 H1          2.1562    1.2367    0.1653 H1        1 <0>        0.06411
      9 H2          1.7713    0.4267   -1.3829 H1        1 <0>        0.06411
     10 H3          1.0774   -0.5139    1.4530 H1        1 <0>        0.05387
     11 H4         -2.2859    1.0655    1.0433 HC        1 <0>        0.05668
     12 H5         -0.7818    1.2669    1.9621 HC        1 <0>        0.05668
     13 H6         -1.5947   -0.3097    1.9257 HC        1 <0>        0.05668
     14 H7          1.9361   -1.9462   -0.2215 HO        1 <0>        0.40413
     15 H8         -2.1930    0.0882   -0.9182 HO        1 <0>        0.41658
@<TRIPOS>BOND
     1    1    2 1
     2    1    5 1
     3    2    3 1
     4    2    6 1
     5    3    4 1
     6    3    5 1
     7    3    7 1
     8    1    8 1
     9    1    9 1
    10    2   10 1
    11    4   11 1
    12    4   12 1
    13    4   13 1
    14    6   14 1
    15    7   15 1
@<TRIPOS>SUBSTRUCTURE
     1 <0>         1 GROUP 0 A     ****
