@<TRIPOS>MOLECULE
AlkEthOH_r770
   18    18     1     0     0
SMALL
USER_CHARGES

@<TRIPOS>ATOM
      1 C1          1.0734    1.0552   -1.0322 CT        1 <0>        0.09417
      2 C2          1.7831   -0.1334   -0.4101 CT        1 <0>        0.09710
      3 C3         -1.0052    0.2118   -0.3089 CT        1 <0>        0.12739
      4 C4         -0.3015   -1.0048    0.3061 CT        1 <0>        0.29886
      5 C5         -2.2686    0.6065    0.4432 CT        1 <0>       -0.08804
      6 O1         -0.1184    1.3391   -0.2981 OS        1 <0>       -0.39710
      7 O2          0.9161   -1.2687   -0.3992 OS        1 <0>       -0.45148
      8 O3         -0.0788   -0.8056    1.6992 OH        1 <0>       -0.60963
      9 H1          1.7126    1.9425   -1.0029 H1        1 <0>        0.05685
     10 H2          0.8077    0.8579   -2.0771 H1        1 <0>        0.05685
     11 H3          2.6746   -0.3922   -0.9891 H1        1 <0>        0.06183
     12 H4          2.0969    0.0851    0.6168 H1        1 <0>        0.06183
     13 H5         -1.2635   -0.0014   -1.3541 H1        1 <0>        0.04633
     14 H6         -0.9447   -1.8851    0.1956 H2        1 <0>        0.07212
     15 H7         -2.0315    0.8224    1.4854 HC        1 <0>        0.05285
     16 H8         -2.9943   -0.2067    0.4078 HC        1 <0>        0.05285
     17 H9         -2.7113    1.4944   -0.0093 HC        1 <0>        0.05285
     18 H10         0.3653   -1.6038    2.0252 HO        1 <0>        0.41437
@<TRIPOS>BOND
     1    1    2 1
     2    1    6 1
     3    2    7 1
     4    3    4 1
     5    3    5 1
     6    3    6 1
     7    4    7 1
     8    4    8 1
     9    1    9 1
    10    1   10 1
    11    2   11 1
    12    2   12 1
    13    3   13 1
    14    4   14 1
    15    5   15 1
    16    5   16 1
    17    5   17 1
    18    8   18 1
@<TRIPOS>SUBSTRUCTURE
     1 <0>         1 GROUP 0 A     ****
