@<TRIPOS>MOLECULE
AlkEthOH_r662
   21    21     1     0     0
SMALL
USER_CHARGES

@<TRIPOS>ATOM
      1 C1         -0.7230    1.3887    1.4798 CT        1 <0>        0.09369
      2 C2         -1.5983    0.1475    1.4190 CT        1 <0>        0.09369
      3 C3          0.7797    1.0125   -0.3116 CT        1 <0>        0.12226
      4 C4         -0.4777   -1.2350   -0.1546 CT        1 <0>        0.12226
      5 C5          0.6568   -0.4332   -0.8074 CT        1 <0>        0.09628
      6 C6          1.9760   -1.1928   -0.6246 CT        1 <0>       -0.12229
      7 O1          0.6251    1.1184    1.1002 OS        1 <0>       -0.40546
      8 O2         -1.6263   -0.4291    0.1139 OS        1 <0>       -0.40546
      9 O3          0.3877   -0.3771   -2.2147 OH        1 <0>       -0.58990
     10 H1         -1.1341    2.1926    0.8578 H1        1 <0>        0.05483
     11 H2         -0.7020    1.7581    2.5104 H1        1 <0>        0.05483
     12 H3         -1.2788   -0.5981    2.1564 H1        1 <0>        0.05483
     13 H4         -2.6268    0.4267    1.6712 H1        1 <0>        0.05483
     14 H5          1.7739    1.4043   -0.5594 H1        1 <0>        0.06013
     15 H6          0.0791    1.6746   -0.8380 H1        1 <0>        0.06013
     16 H7         -0.8118   -2.0272   -0.8347 H1        1 <0>        0.06013
     17 H8         -0.1433   -1.7330    0.7639 H1        1 <0>        0.06013
     18 H9          1.8606   -2.2121   -0.9833 HC        1 <0>        0.04638
     19 H10         2.2428   -1.2085    0.4288 HC        1 <0>        0.04638
     20 H11         2.7613   -0.6975   -1.1892 HC        1 <0>        0.04638
     21 H12         1.1401    0.0826   -2.6126 HO        1 <0>        0.39595
@<TRIPOS>BOND
     1    1    2 1
     2    1    7 1
     3    2    8 1
     4    3    5 1
     5    3    7 1
     6    4    5 1
     7    4    8 1
     8    5    6 1
     9    5    9 1
    10    1   10 1
    11    1   11 1
    12    2   12 1
    13    2   13 1
    14    3   14 1
    15    3   15 1
    16    4   16 1
    17    4   17 1
    18    6   18 1
    19    6   19 1
    20    6   20 1
    21    9   21 1
@<TRIPOS>SUBSTRUCTURE
     1 <0>         1 GROUP 0 A     ****
