@<TRIPOS>MOLECULE
AlkEthOH_r156
   19    19     1     0     0
SMALL
USER_CHARGES

@<TRIPOS>ATOM
      1 C1         -0.6569    0.4718    1.3815 CT        1 <0>       -0.14803
      2 C2          0.1828   -0.6806    1.9268 CT        1 <0>        0.13121
      3 C3          1.4963   -0.9669   -0.0442 CT        1 <0>        0.31666
      4 C4         -1.1176    0.2249   -0.0564 CT        1 <0>        0.12338
      5 C5         -0.0514    0.5210   -1.1216 CT        1 <0>        0.33408
      6 O1          1.4849   -0.7569    1.3629 OS        1 <0>       -0.42856
      7 O2          1.2951    0.2418   -0.7596 OS        1 <0>       -0.46274
      8 O3         -2.2374    1.0706   -0.3399 OH        1 <0>       -0.59004
      9 O4         -0.3957   -0.1257   -2.3496 OH        1 <0>       -0.62547
     10 H1         -1.5395    0.5933    2.0221 HC        1 <0>        0.06727
     11 H2         -0.0997    1.4149    1.4361 HC        1 <0>        0.06727
     12 H3          0.3178   -0.5353    3.0041 H1        1 <0>        0.04951
     13 H4         -0.3273   -1.6427    1.7990 H1        1 <0>        0.04951
     14 H5          2.5054   -1.3089   -0.2936 H2        1 <0>        0.07091
     15 H6          0.8058   -1.7633   -0.3489 H2        1 <0>        0.07091
     16 H7         -1.4829   -0.8040   -0.1592 H1        1 <0>        0.05446
     17 H8         -0.0719    1.6121   -1.3415 H2        1 <0>        0.09433
     18 H9         -2.9261    0.8290    0.2960 HO        1 <0>        0.40648
     19 H10         0.3068    0.0950   -2.9785 HO        1 <0>        0.41886
@<TRIPOS>BOND
     1    1    2 1
     2    1    4 1
     3    2    6 1
     4    3    6 1
     5    3    7 1
     6    4    5 1
     7    4    8 1
     8    5    7 1
     9    5    9 1
    10    1   10 1
    11    1   11 1
    12    2   12 1
    13    2   13 1
    14    3   14 1
    15    3   15 1
    16    4   16 1
    17    5   17 1
    18    8   18 1
    19    9   19 1
@<TRIPOS>SUBSTRUCTURE
     1 <0>         1 GROUP 0 A     ****
