@<TRIPOS>MOLECULE
AlkEthOH_r442
   34    34     1     0     0
SMALL
USER_CHARGES

@<TRIPOS>ATOM
      1 C1          1.7522    1.4860   -0.4448 CT        1 <0>       -0.06385
      2 C2          2.4819    0.1455   -0.4778 CT        1 <0>       -0.11049
      3 C3          0.3070    1.5645    0.0786 CT        1 <0>       -0.07708
      4 C4          2.4330   -0.6622    0.8131 CT        1 <0>        0.13432
      5 C5          0.2335   -1.5288    0.4544 CT        1 <0>        0.13466
      6 C6         -0.8266    0.6727   -0.5467 CT        1 <0>       -0.02512
      7 C7         -1.0699   -0.7127    0.2390 CT        1 <0>       -0.05408
      8 C8         -0.5658    0.4408   -2.0539 CT        1 <0>       -0.08867
      9 C9         -2.1195    1.5452   -0.4877 CT        1 <0>       -0.08867
     10 C10        -1.7059   -0.4713    1.6352 CT        1 <0>       -0.08718
     11 C11        -2.0405   -1.6462   -0.5313 CT        1 <0>       -0.08718
     12 O1          1.1204   -0.8335    1.3218 OS        1 <0>       -0.41844
     13 H1          2.3500    2.1710    0.1718 HC        1 <0>        0.03480
     14 H2          1.7853    1.9129   -1.4553 HC        1 <0>        0.03480
     15 H3          2.1038   -0.4535   -1.3089 HC        1 <0>        0.04410
     16 H4          3.5350    0.3316   -0.7252 HC        1 <0>        0.04410
     17 H5          0.3140    1.4622    1.1688 HC        1 <0>        0.04711
     18 H6          0.0267    2.6179   -0.0733 HC        1 <0>        0.04711
     19 H7          2.8980   -1.6446    0.6700 H1        1 <0>        0.04178
     20 H8          3.0106   -0.1439    1.5861 H1        1 <0>        0.04178
     21 H9         -0.0000   -2.4782    0.9530 H1        1 <0>        0.03810
     22 H10         0.6939   -1.8038   -0.4997 H1        1 <0>        0.03810
     23 H11        -1.3604   -0.1745   -2.4552 HC        1 <0>        0.03370
     24 H12         0.3868   -0.0593   -2.1705 HC        1 <0>        0.03370
     25 H13        -0.5471    1.3990   -2.5566 HC        1 <0>        0.03370
     26 H14        -2.9302    0.9727   -0.9082 HC        1 <0>        0.03370
     27 H15        -1.9462    2.4410   -1.0616 HC        1 <0>        0.03370
     28 H16        -2.3159    1.7846    0.5448 HC        1 <0>        0.03370
     29 H17        -2.6157    0.0964    1.5045 HC        1 <0>        0.03630
     30 H18        -1.0023    0.0798    2.2422 HC        1 <0>        0.03630
     31 H19        -1.9213   -1.4297    2.0846 HC        1 <0>        0.03630
     32 H20        -2.9660   -1.1152   -0.7035 HC        1 <0>        0.03630
     33 H21        -2.2195   -2.5277    0.0679 HC        1 <0>        0.03630
     34 H22        -1.5833   -1.9184   -1.4722 HC        1 <0>        0.03630
@<TRIPOS>BOND
     1    1    2 1
     2    1    3 1
     3    2    4 1
     4    3    6 1
     5    4   12 1
     6    5    7 1
     7    5   12 1
     8    6    7 1
     9    6    8 1
    10    6    9 1
    11    7   10 1
    12    7   11 1
    13    1   13 1
    14    1   14 1
    15    2   15 1
    16    2   16 1
    17    3   17 1
    18    3   18 1
    19    4   19 1
    20    4   20 1
    21    5   21 1
    22    5   22 1
    23    8   23 1
    24    8   24 1
    25    8   25 1
    26    9   26 1
    27    9   27 1
    28    9   28 1
    29   10   29 1
    30   10   30 1
    31   10   31 1
    32   11   32 1
    33   11   33 1
    34   11   34 1
@<TRIPOS>SUBSTRUCTURE
     1 <0>         1 GROUP 0 A     ****
