@<TRIPOS>MOLECULE
AlkEthOH_r384
   31    31     1     0     0
SMALL
USER_CHARGES

@<TRIPOS>ATOM
      1 C1          1.9914    1.4371   -0.3260 CT        1 <0>       -0.07099
      2 C2          2.2301    0.0537   -0.9479 CT        1 <0>       -0.07359
      3 C3          0.5871    1.7174    0.2244 CT        1 <0>       -0.07268
      4 C4          1.2449   -0.3347   -2.0583 CT        1 <0>       -0.10848
      5 C5          0.1181    0.7324    1.3057 CT        1 <0>       -0.06377
      6 C6          0.4243   -1.5865   -1.7265 CT        1 <0>        0.13133
      7 C7         -1.2849   -0.6746   -0.3243 CT        1 <0>        0.13539
      8 C8         -1.2589    0.0571    1.0385 CT        1 <0>       -0.05845
      9 C9         -2.3907    1.0991    1.0734 CT        1 <0>       -0.08786
     10 C10        -1.5080   -0.9657    2.1674 CT        1 <0>       -0.08786
     11 O1         -0.1534   -1.5352   -0.4266 OS        1 <0>       -0.41904
     12 H1          2.7219    1.5812    0.4800 HC        1 <0>        0.03527
     13 H2          2.2180    2.2010   -1.0807 HC        1 <0>        0.03527
     14 H3          3.2400    0.0642   -1.3791 HC        1 <0>        0.04486
     15 H4          2.2647   -0.7095   -0.1626 HC        1 <0>        0.04486
     16 H5          0.6024    2.7227    0.6660 HC        1 <0>        0.03399
     17 H6         -0.1208    1.7872   -0.6051 HC        1 <0>        0.03399
     18 H7          0.5778    0.4996   -2.2951 HC        1 <0>        0.04294
     19 H8          1.8042   -0.5354   -2.9807 HC        1 <0>        0.04294
     20 H9          0.8777   -0.0389    1.4774 HC        1 <0>        0.04596
     21 H10         0.0572    1.2807    2.2564 HC        1 <0>        0.04596
     22 H11        -0.3515   -1.7613   -2.4812 H1        1 <0>        0.04360
     23 H12         1.0883   -2.4578   -1.7410 H1        1 <0>        0.04360
     24 H13        -2.1848   -1.2955   -0.4111 H1        1 <0>        0.03293
     25 H14        -1.3227    0.0423   -1.1513 H1        1 <0>        0.03293
     26 H15        -3.3378    0.6047    0.8849 HC        1 <0>        0.03615
     27 H16        -2.2108    1.8480    0.3095 HC        1 <0>        0.03615
     28 H17        -2.4124    1.5708    2.0502 HC        1 <0>        0.03615
     29 H18        -2.4632   -1.4490    2.0013 HC        1 <0>        0.03615
     30 H19        -1.5172   -0.4465    3.1182 HC        1 <0>        0.03615
     31 H20        -0.7143   -1.7031    2.1569 HC        1 <0>        0.03615
@<TRIPOS>BOND
     1    1    2 1
     2    1    3 1
     3    2    4 1
     4    3    5 1
     5    4    6 1
     6    5    8 1
     7    6   11 1
     8    7    8 1
     9    7   11 1
    10    8    9 1
    11    8   10 1
    12    1   12 1
    13    1   13 1
    14    2   14 1
    15    2   15 1
    16    3   16 1
    17    3   17 1
    18    4   18 1
    19    4   19 1
    20    5   20 1
    21    5   21 1
    22    6   22 1
    23    6   23 1
    24    7   24 1
    25    7   25 1
    26    9   26 1
    27    9   27 1
    28    9   28 1
    29   10   29 1
    30   10   30 1
    31   10   31 1
@<TRIPOS>SUBSTRUCTURE
     1 <0>         1 GROUP 0 A     ****
