@<TRIPOS>MOLECULE
AlkEthOH_r931
   26    26     1     0     0
SMALL
USER_CHARGES

@<TRIPOS>ATOM
      1 C1         -0.2803    1.7194   -0.9930 CT        1 <0>       -0.06591
      2 C2         -1.3789    0.8287   -1.5857 CT        1 <0>       -0.09454
      3 C3         -0.1777    1.6685    0.5367 CT        1 <0>       -0.10255
      4 C4         -1.1697   -0.6671   -1.3770 CT        1 <0>        0.14082
      5 C5          0.9248    0.7461    1.0845 CT        1 <0>        0.15006
      6 C6         -0.1321   -1.3707    0.6759 CT        1 <0>        0.33391
      7 C7          2.3054    1.3838    0.9343 CT        1 <0>       -0.09402
      8 C8          0.2557   -2.7968    0.2987 CT        1 <0>       -0.11617
      9 O1         -1.3325   -0.9935   -0.0001 OS        1 <0>       -0.45548
     10 O2          0.9852   -0.5184    0.4258 OS        1 <0>       -0.44382
     11 H1          0.6801    1.4901   -1.4671 HC        1 <0>        0.04088
     12 H2         -0.5205    2.7522   -1.2769 HC        1 <0>        0.04088
     13 H3         -2.3429    1.1249   -1.1536 HC        1 <0>        0.04506
     14 H4         -1.4351    1.0255   -2.6631 HC        1 <0>        0.04506
     15 H5          0.0043    2.6837    0.9131 HC        1 <0>        0.05004
     16 H6         -1.1454    1.3739    0.9600 HC        1 <0>        0.05004
     17 H7         -1.9477   -1.2098   -1.9244 H1        1 <0>        0.04528
     18 H8         -0.2040   -0.9877   -1.7827 H1        1 <0>        0.04528
     19 H9          0.7560    0.5846    2.1568 H1        1 <0>        0.03109
     20 H10        -0.3552   -1.3666    1.7494 H2        1 <0>        0.06669
     21 H11         2.5158    1.5626   -0.1186 HC        1 <0>        0.04414
     22 H12         3.0644    0.7189    1.3424 HC        1 <0>        0.04414
     23 H13         2.3340    2.3307    1.4704 HC        1 <0>        0.04414
     24 H14         0.4872   -2.8496   -0.7646 HC        1 <0>        0.05166
     25 H15        -0.5683   -3.4754    0.5166 HC        1 <0>        0.05166
     26 H16         1.1311   -3.1065    0.8685 HC        1 <0>        0.05166
@<TRIPOS>BOND
     1    1    2 1
     2    1    3 1
     3    2    4 1
     4    3    5 1
     5    4    9 1
     6    5    7 1
     7    5   10 1
     8    6    8 1
     9    6    9 1
    10    6   10 1
    11    1   11 1
    12    1   12 1
    13    2   13 1
    14    2   14 1
    15    3   15 1
    16    3   16 1
    17    4   17 1
    18    4   18 1
    19    5   19 1
    20    6   20 1
    21    7   21 1
    22    7   22 1
    23    7   23 1
    24    8   24 1
    25    8   25 1
    26    8   26 1
@<TRIPOS>SUBSTRUCTURE
     1 <0>         1 GROUP 0 A     ****
