@<TRIPOS>MOLECULE
AlkEthOH_r531
   26    26     1     0     0
SMALL
USER_CHARGES

@<TRIPOS>ATOM
      1 C1          1.1960    0.8297   -0.7110 CT        1 <0>       -0.10470
      2 C2         -0.1257   -0.7896    0.8365 CT        1 <0>       -0.10641
      3 C3          0.1592    1.8998   -0.3925 CT        1 <0>        0.12778
      4 C4         -1.8878    0.6592   -0.2893 CT        1 <0>        0.09953
      5 C5         -1.2842   -0.7409   -0.1643 CT        1 <0>        0.10721
      6 C6          1.2549   -0.3437    0.2970 CT        1 <0>       -0.04594
      7 C7          2.1329    0.0582    1.5020 CT        1 <0>       -0.08951
      8 C8          1.9403   -1.5386   -0.4006 CT        1 <0>       -0.08951
      9 O1         -1.0821    1.5777   -1.0110 OS        1 <0>       -0.41040
     10 O2         -2.3034   -1.6116    0.3334 OH        1 <0>       -0.59294
     11 H1          0.9954    0.4404   -1.7182 HC        1 <0>        0.05500
     12 H2          2.1858    1.3023   -0.7582 HC        1 <0>        0.05500
     13 H3         -0.4016   -0.1830    1.7107 HC        1 <0>        0.04723
     14 H4         -0.0397   -1.8090    1.2393 HC        1 <0>        0.04723
     15 H5          0.0366    2.0905    0.6790 H1        1 <0>        0.04853
     16 H6          0.4852    2.8407   -0.8492 H1        1 <0>        0.04853
     17 H7         -2.8408    0.5906   -0.8273 H1        1 <0>        0.05075
     18 H8         -2.1402    1.0766    0.6938 H1        1 <0>        0.05075
     19 H9         -0.9655   -1.1219   -1.1401 H1        1 <0>        0.09011
     20 H10         2.1692   -0.7673    2.2023 HC        1 <0>        0.03624
     21 H11         1.6994    0.9288    1.9788 HC        1 <0>        0.03624
     22 H12         3.1310    0.2882    1.1493 HC        1 <0>        0.03624
     23 H13         1.9898   -2.3699    0.2921 HC        1 <0>        0.03624
     24 H14         2.9396   -1.2462   -0.6992 HC        1 <0>        0.03624
     25 H15         1.3605   -1.8175   -1.2721 HC        1 <0>        0.03624
     26 H16        -2.5562   -1.2652    1.2017 HO        1 <0>        0.39432
@<TRIPOS>BOND
     1    1    3 1
     2    1    6 1
     3    2    5 1
     4    2    6 1
     5    3    9 1
     6    4    5 1
     7    4    9 1
     8    5   10 1
     9    6    7 1
    10    6    8 1
    11    1   11 1
    12    1   12 1
    13    2   13 1
    14    2   14 1
    15    3   15 1
    16    3   16 1
    17    4   17 1
    18    4   18 1
    19    5   19 1
    20    7   20 1
    21    7   21 1
    22    7   22 1
    23    8   23 1
    24    8   24 1
    25    8   25 1
    26   10   26 1
@<TRIPOS>SUBSTRUCTURE
     1 <0>         1 GROUP 0 A     ****
