@<TRIPOS>MOLECULE
AlkEthOH_r21
   17    17     1     0     0
SMALL
USER_CHARGES

@<TRIPOS>ATOM
      1 C1          0.9947   -0.3862    0.2453 CT        1 <0>       -0.10794
      2 C2          0.9496   -1.8998    0.4135 CT        1 <0>       -0.11647
      3 C3          1.5255    0.2791    1.5092 CT        1 <0>        0.12369
      4 C4          2.7525   -1.6457    2.1373 CT        1 <0>        0.13129
      5 C5          2.2945   -2.4244    0.9102 CT        1 <0>        0.10712
      6 O1          2.8050   -0.2476    1.8620 OS        1 <0>       -0.41287
      7 O2          2.1911   -3.8013    1.2424 OH        1 <0>       -0.59624
      8 H1          1.6605   -0.1468   -0.5929 HC        1 <0>        0.05246
      9 H2          0.0000    0.0001   -0.0003 HC        1 <0>        0.05246
     10 H3          0.1591   -2.1736    1.1245 HC        1 <0>        0.04879
     11 H4          0.6815   -2.3843   -0.5324 HC        1 <0>        0.04879
     12 H5          1.6419    1.3546    1.3428 H1        1 <0>        0.04947
     13 H6          0.8334    0.1476    2.3495 H1        1 <0>        0.04947
     14 H7          2.1003   -1.8321    2.9997 H1        1 <0>        0.06114
     15 H8          3.7553   -1.9717    2.4342 H1        1 <0>        0.06114
     16 H9          3.0373   -2.3153    0.1108 H1        1 <0>        0.04511
     17 H10         1.9235   -4.2666    0.4330 HO        1 <0>        0.40259
@<TRIPOS>BOND
     1    1    2 1
     2    1    3 1
     3    2    5 1
     4    3    6 1
     5    4    5 1
     6    4    6 1
     7    5    7 1
     8    1    8 1
     9    1    9 1
    10    2   10 1
    11    2   11 1
    12    3   12 1
    13    3   13 1
    14    4   14 1
    15    4   15 1
    16    5   16 1
    17    7   17 1
@<TRIPOS>SUBSTRUCTURE
     1 <0>         1 GROUP 0 A     ****
