@<TRIPOS>MOLECULE
AlkEthOH_r921
   28    28     1     0     0
SMALL
USER_CHARGES

@<TRIPOS>ATOM
      1 C1          1.4974    1.0786    0.8595 CT        1 <0>       -0.07235
      2 C2          1.2973   -0.3715    1.3126 CT        1 <0>       -0.07256
      3 C3          2.0878    1.2178   -0.5511 CT        1 <0>       -0.08445
      4 C4         -0.1288   -0.7113    1.7714 CT        1 <0>       -0.06928
      5 C5         -1.0712   -1.1466   -0.5963 CT        1 <0>       -0.10681
      6 C6          1.2805    0.5294   -1.6497 CT        1 <0>        0.12892
      7 C7         -1.0030   -0.1578   -1.7685 CT        1 <0>        0.13038
      8 C8         -1.2735   -0.4476    0.7668 CT        1 <0>       -0.06291
      9 C9         -2.6004   -0.8985    1.3927 CT        1 <0>       -0.09118
     10 O1         -0.0862    0.9076   -1.5375 OS        1 <0>       -0.42008
     11 H1          0.5686    1.6540    0.9270 HC        1 <0>        0.04558
     12 H2          2.1896    1.5672    1.5576 HC        1 <0>        0.04558
     13 H3          1.6262   -1.0836    0.5503 HC        1 <0>        0.03414
     14 H4          1.9630   -0.5526    2.1674 HC        1 <0>        0.03414
     15 H5          2.1437    2.2901   -0.7774 HC        1 <0>        0.04340
     16 H6          3.1155    0.8367   -0.5660 HC        1 <0>        0.04340
     17 H7         -0.1428   -1.7704    2.0611 HC        1 <0>        0.03522
     18 H8         -0.3352   -0.1448    2.6892 HC        1 <0>        0.03522
     19 H9         -1.8881   -1.8499   -0.8012 HC        1 <0>        0.04484
     20 H10        -0.1632   -1.7568   -0.5812 HC        1 <0>        0.04484
     21 H11         1.6427    0.8545   -2.6312 H1        1 <0>        0.03158
     22 H12         1.4175   -0.5556   -1.6038 H1        1 <0>        0.03158
     23 H13        -0.7549   -0.6736   -2.7036 H1        1 <0>        0.04391
     24 H14        -1.9898    0.2983   -1.9041 H1        1 <0>        0.04391
     25 H15        -1.3632    0.6351    0.6216 HC        1 <0>        0.06644
     26 H16        -2.5741   -1.9710    1.5625 HC        1 <0>        0.03218
     27 H17        -3.4180   -0.6580    0.7192 HC        1 <0>        0.03218
     28 H18        -2.7469   -0.3850    2.3387 HC        1 <0>        0.03218
@<TRIPOS>BOND
     1    1    2 1
     2    1    3 1
     3    2    4 1
     4    3    6 1
     5    4    8 1
     6    5    7 1
     7    5    8 1
     8    6   10 1
     9    7   10 1
    10    8    9 1
    11    1   11 1
    12    1   12 1
    13    2   13 1
    14    2   14 1
    15    3   15 1
    16    3   16 1
    17    4   17 1
    18    4   18 1
    19    5   19 1
    20    5   20 1
    21    6   21 1
    22    6   22 1
    23    7   23 1
    24    7   24 1
    25    8   25 1
    26    9   26 1
    27    9   27 1
    28    9   28 1
@<TRIPOS>SUBSTRUCTURE
     1 <0>         1 GROUP 0 A     ****
