@<TRIPOS>MOLECULE
AlkEthOH_r208
   32    32     1     0     0
SMALL
USER_CHARGES

@<TRIPOS>ATOM
      1 C1         -1.9184    1.1212   -0.9545 CT        1 <0>       -0.10575
      2 C2         -2.0611   -0.3755   -1.2081 CT        1 <0>       -0.10567
      3 C3         -1.6264    1.4562    0.5051 CT        1 <0>        0.14136
      4 C4         -0.8161   -0.9987   -1.8324 CT        1 <0>        0.14136
      5 C5          0.6314    0.4812    0.8805 CT        1 <0>        0.15021
      6 C6          0.9017   -0.7684   -0.0474 CT        1 <0>        0.15021
      7 C7          1.2732    0.3036    2.2759 CT        1 <0>       -0.10482
      8 C8          1.2028    1.7943    0.3044 CT        1 <0>       -0.10482
      9 C9          2.4147   -0.9942   -0.2718 CT        1 <0>       -0.10482
     10 C10         0.3489   -2.0851    0.5388 CT        1 <0>       -0.10482
     11 O1         -0.7729    0.5469    1.1817 OS        1 <0>       -0.42944
     12 O2          0.4224   -0.4815   -1.3723 OS        1 <0>       -0.42944
     13 H1         -1.1466    1.5054   -1.6056 HC        1 <0>        0.04834
     14 H2         -2.8439    1.6122   -1.2430 HC        1 <0>        0.04834
     15 H3         -2.3012   -0.8982   -0.2823 HC        1 <0>        0.04834
     16 H4         -2.9016   -0.5173   -1.8902 HC        1 <0>        0.04834
     17 H5         -1.2436    2.4697    0.5970 H1        1 <0>        0.04240
     18 H6         -2.5719    1.4351    1.0475 H1        1 <0>        0.04240
     19 H7         -0.8913   -2.1071   -1.7295 H1        1 <0>        0.04240
     20 H8         -0.8515   -0.8356   -2.9356 H1        1 <0>        0.04240
     21 H9          1.0610    1.1816    2.8716 HC        1 <0>        0.04529
     22 H10         2.3419    0.1846    2.1555 HC        1 <0>        0.04529
     23 H11         0.8509   -0.5755    2.7446 HC        1 <0>        0.04529
     24 H12         0.9820    2.6045    0.9885 HC        1 <0>        0.04529
     25 H13         0.7426    1.9866   -0.6571 HC        1 <0>        0.04529
     26 H14         2.2746    1.6906    0.1874 HC        1 <0>        0.04529
     27 H15         2.5506   -1.8577   -0.9111 HC        1 <0>        0.04529
     28 H16         2.8908   -1.1643    0.6860 HC        1 <0>        0.04529
     29 H17         2.8355   -0.1146   -0.7434 HC        1 <0>        0.04529
     30 H18         0.5698   -2.8925   -0.1470 HC        1 <0>        0.04529
     31 H19        -0.7212   -1.9880    0.6670 HC        1 <0>        0.04529
     32 H20         0.8232   -2.2680    1.4942 HC        1 <0>        0.04529
@<TRIPOS>BOND
     1    1    2 1
     2    1    3 1
     3    2    4 1
     4    3   11 1
     5    4   12 1
     6    5    6 1
     7    5    7 1
     8    5    8 1
     9    5   11 1
    10    6    9 1
    11    6   10 1
    12    6   12 1
    13    1   13 1
    14    1   14 1
    15    2   15 1
    16    2   16 1
    17    3   17 1
    18    3   18 1
    19    4   19 1
    20    4   20 1
    21    7   21 1
    22    7   22 1
    23    7   23 1
    24    8   24 1
    25    8   25 1
    26    8   26 1
    27    9   27 1
    28    9   28 1
    29    9   29 1
    30   10   30 1
    31   10   31 1
    32   10   32 1
@<TRIPOS>SUBSTRUCTURE
     1 <0>         1 GROUP 0 A     ****
