@<TRIPOS>MOLECULE
AlkEthOH_r509
   16    16     1     0     0
SMALL
USER_CHARGES

@<TRIPOS>ATOM
      1 C1         -0.4840    1.2024    0.1570 CT        1 <0>       -0.13340
      2 C2         -0.9032    0.3456    1.3470 CT        1 <0>        0.11186
      3 C3          0.2243   -0.0695   -0.3434 CT        1 <0>        0.13515
      4 C4         -0.3622   -0.6748   -1.6107 CT        1 <0>       -0.09547
      5 C5          1.7440    0.0102   -0.3716 CT        1 <0>       -0.09547
      6 O1         -0.2189   -0.8140    0.8216 OS        1 <0>       -0.42431
      7 H1         -1.3141    1.5600   -0.4588 HC        1 <0>        0.06077
      8 H2          0.1682    2.0430    0.4105 HC        1 <0>        0.06077
      9 H3         -0.4900    0.6515    2.3122 H1        1 <0>        0.05223
     10 H4         -1.9783    0.1684    1.4399 H1        1 <0>        0.05223
     11 H5          0.1971   -1.5676   -1.8927 HC        1 <0>        0.04594
     12 H6         -0.3114    0.0456   -2.4278 HC        1 <0>        0.04594
     13 H7         -1.4049   -0.9491   -1.4467 HC        1 <0>        0.04594
     14 H8          2.1614   -0.9287   -0.7370 HC        1 <0>        0.04594
     15 H9          2.1276    0.1998    0.6315 HC        1 <0>        0.04594
     16 H10         2.0643    0.8184   -1.0302 HC        1 <0>        0.04594
@<TRIPOS>BOND
     1    1    2 1
     2    1    3 1
     3    2    6 1
     4    3    4 1
     5    3    5 1
     6    3    6 1
     7    1    7 1
     8    1    8 1
     9    2    9 1
    10    2   10 1
    11    4   11 1
    12    4   12 1
    13    4   13 1
    14    5   14 1
    15    5   15 1
    16    5   16 1
@<TRIPOS>SUBSTRUCTURE
     1 <0>         1 GROUP 0 A     ****
