@<TRIPOS>MOLECULE
AlkEthOH_r431
   24    24     1     0     0
SMALL
USER_CHARGES

@<TRIPOS>ATOM
      1 C1         -0.9138   -0.3521   -1.8089 CT        1 <0>       -0.07593
      2 C2         -1.4934    1.0154   -1.4562 CT        1 <0>       -0.11358
      3 C3         -0.8301   -1.2844   -0.5955 CT        1 <0>       -0.10298
      4 C4         -0.4782    1.9925   -0.8739 CT        1 <0>        0.14094
      5 C5          0.1937    0.5431    0.9110 CT        1 <0>        0.36035
      6 C6          0.2326   -0.9339    0.4644 CT        1 <0>        0.10728
      7 C7          0.0712   -1.8868    1.6587 CT        1 <0>       -0.12058
      8 O1          0.5902    1.3768   -0.1730 OS        1 <0>       -0.43733
      9 O2          1.1113    0.7304    1.9898 OH        1 <0>       -0.60442
     10 O3          1.5166   -1.2010   -0.1163 OH        1 <0>       -0.57841
     11 H1         -1.5856   -0.8227   -2.5379 HC        1 <0>        0.05336
     12 H2          0.0605   -0.2548   -2.3011 HC        1 <0>        0.05336
     13 H3         -1.9367    1.4722   -2.3496 HC        1 <0>        0.04601
     14 H4         -2.3224    0.8899   -0.7484 HC        1 <0>        0.04601
     15 H5         -1.8197   -1.3322   -0.1224 HC        1 <0>        0.04492
     16 H6         -0.6196   -2.2919   -0.9798 HC        1 <0>        0.04492
     17 H7         -0.0219    2.5591   -1.6932 H1        1 <0>        0.04781
     18 H8         -0.9725    2.7250   -0.2252 H1        1 <0>        0.04781
     19 H9         -0.8032    0.8090    1.2852 H2        1 <0>        0.06723
     20 H10         0.8155   -1.6488    2.4124 HC        1 <0>        0.04800
     21 H11         0.2075   -2.9104    1.3234 HC        1 <0>        0.04800
     22 H12        -0.9229   -1.7711    2.0797 HC        1 <0>        0.04800
     23 H13         1.0546    1.6654    2.2369 HO        1 <0>        0.43322
     24 H14         1.5189   -2.1426   -0.3376 HO        1 <0>        0.39601
@<TRIPOS>BOND
     1    1    2 1
     2    1    3 1
     3    2    4 1
     4    3    6 1
     5    4    8 1
     6    5    6 1
     7    5    8 1
     8    5    9 1
     9    6    7 1
    10    6   10 1
    11    1   11 1
    12    1   12 1
    13    2   13 1
    14    2   14 1
    15    3   15 1
    16    3   16 1
    17    4   17 1
    18    4   18 1
    19    5   19 1
    20    7   20 1
    21    7   21 1
    22    7   22 1
    23    9   23 1
    24   10   24 1
@<TRIPOS>SUBSTRUCTURE
     1 <0>         1 GROUP 0 A     ****
