@<TRIPOS>MOLECULE
AlkEthOH_r943
   30    30     1     0     0
SMALL
USER_CHARGES

@<TRIPOS>ATOM
      1 C1          0.0368    0.4898    2.3226 CT        1 <0>       -0.05808
      2 C2          0.3856    1.6958    1.4440 CT        1 <0>       -0.11282
      3 C3         -0.1375   -0.8694    1.6300 CT        1 <0>       -0.10627
      4 C4          1.7373    1.5947    0.7385 CT        1 <0>        0.13692
      5 C5          1.0975    0.6685   -1.3818 CT        1 <0>        0.08531
      6 C6         -1.2319   -0.9696    0.5543 CT        1 <0>        0.16916
      7 C7         -0.0053   -0.3955   -1.4900 CT        1 <0>        0.34072
      8 C8         -2.6120   -0.6514    1.1276 CT        1 <0>       -0.09510
      9 C9         -0.6553   -0.2968   -2.8736 CT        1 <0>       -0.12482
     10 O1          1.8274    0.5021   -0.1666 OS        1 <0>       -0.41644
     11 O2         -1.0365   -0.0844   -0.5449 OS        1 <0>       -0.43649
     12 O3          0.5936   -1.6839   -1.3599 OH        1 <0>       -0.60913
     13 H1          0.8209    0.3799    3.0831 HC        1 <0>        0.03225
     14 H2         -0.8787    0.7252    2.8788 HC        1 <0>        0.03225
     15 H3         -0.4150    1.8796    0.7225 HC        1 <0>        0.05365
     16 H4          0.4134    2.5823    2.0903 HC        1 <0>        0.05365
     17 H5          0.8234   -1.1858    1.2144 HC        1 <0>        0.05619
     18 H6         -0.3654   -1.6069    2.4113 HC        1 <0>        0.05619
     19 H7          1.9704    2.5291    0.2141 H1        1 <0>        0.04301
     20 H8          2.5228    1.4522    1.4888 H1        1 <0>        0.04301
     21 H9          1.8253    0.5316   -2.1896 H1        1 <0>        0.05197
     22 H10         0.6827    1.6804   -1.4639 H1        1 <0>        0.05197
     23 H11        -1.2741   -2.0009    0.1832 H1        1 <0>        0.05665
     24 H12        -2.6254    0.3669    1.5122 HC        1 <0>        0.04212
     25 H13        -2.8428   -1.3418    1.9369 HC        1 <0>        0.04212
     26 H14        -3.3660   -0.7491    0.3486 HC        1 <0>        0.04212
     27 H15        -1.4385   -1.0456   -2.9627 HC        1 <0>        0.05011
     28 H16         0.0950   -0.4671   -3.6418 HC        1 <0>        0.05011
     29 H17        -1.0865    0.6928   -3.0040 HC        1 <0>        0.05011
     30 H18         1.2338   -1.7635   -2.0834 HO        1 <0>        0.41956
@<TRIPOS>BOND
     1    1    2 1
     2    1    3 1
     3    2    4 1
     4    3    6 1
     5    4   10 1
     6    5    7 1
     7    5   10 1
     8    6    8 1
     9    6   11 1
    10    7    9 1
    11    7   11 1
    12    7   12 1
    13    1   13 1
    14    1   14 1
    15    2   15 1
    16    2   16 1
    17    3   17 1
    18    3   18 1
    19    4   19 1
    20    4   20 1
    21    5   21 1
    22    5   22 1
    23    6   23 1
    24    8   24 1
    25    8   25 1
    26    8   26 1
    27    9   27 1
    28    9   28 1
    29    9   29 1
    30   12   30 1
@<TRIPOS>SUBSTRUCTURE
     1 <0>         1 GROUP 0 A     ****
