@<TRIPOS>MOLECULE
AlkEthOH_r597
   23    23     1     0     0
SMALL
USER_CHARGES

@<TRIPOS>ATOM
      1 C1         -0.2576   -0.9358    1.1143 CT        1 <0>        0.11096
      2 C2         -0.3879    0.5673    0.9460 CT        1 <0>        0.13111
      3 C3          0.4432   -0.3918   -0.9664 CT        1 <0>        0.34446
      4 C4         -1.8398    0.9955    0.7200 CT        1 <0>       -0.09893
      5 C5          0.2170    1.3362    2.1140 CT        1 <0>       -0.09893
      6 C6          1.9150   -0.7614   -1.1330 CT        1 <0>       -0.10757
      7 C7         -0.2291   -0.2335   -2.3237 CT        1 <0>       -0.10757
      8 O1         -0.2268   -1.4231   -0.2280 OS        1 <0>       -0.43764
      9 O2          0.3661    0.8466   -0.2432 OS        1 <0>       -0.44087
     10 H1          0.6836   -1.2223    1.5974 H1        1 <0>        0.05786
     11 H2         -1.0846   -1.3934    1.6650 H1        1 <0>        0.05786
     12 H3         -1.8887    2.0759    0.6046 HC        1 <0>        0.04734
     13 H4         -2.4460    0.6974    1.5724 HC        1 <0>        0.04734
     14 H5         -2.2255    0.5203   -0.1792 HC        1 <0>        0.04734
     15 H6          0.1025    2.4083    1.9536 HC        1 <0>        0.04734
     16 H7          1.2780    1.1033    2.2039 HC        1 <0>        0.04734
     17 H8         -0.2856    1.0614    3.0413 HC        1 <0>        0.04734
     18 H9          2.3818   -0.8710   -0.1552 HC        1 <0>        0.05087
     19 H10         2.4318    0.0196   -1.6887 HC        1 <0>        0.05087
     20 H11         2.0010   -1.7015   -1.6761 HC        1 <0>        0.05087
     21 H12        -1.2788    0.0302   -2.1921 HC        1 <0>        0.05087
     22 H13        -0.1671   -1.1677   -2.8823 HC        1 <0>        0.05087
     23 H14         0.2638    0.5533   -2.8952 HC        1 <0>        0.05087
@<TRIPOS>BOND
     1    1    2 1
     2    1    8 1
     3    2    4 1
     4    2    5 1
     5    2    9 1
     6    3    6 1
     7    3    7 1
     8    3    8 1
     9    3    9 1
    10    1   10 1
    11    1   11 1
    12    4   12 1
    13    4   13 1
    14    4   14 1
    15    5   15 1
    16    5   16 1
    17    5   17 1
    18    6   18 1
    19    6   19 1
    20    6   20 1
    21    7   21 1
    22    7   22 1
    23    7   23 1
@<TRIPOS>SUBSTRUCTURE
     1 <0>         1 GROUP 0 A     ****
