@<TRIPOS>MOLECULE
AlkEthOH_r1137
   30    30     1     0     0
SMALL
USER_CHARGES

@<TRIPOS>ATOM
      1 C1          2.3414   -1.3547    0.4554 CT        1 <0>       -0.10991
      2 C2          1.2978   -2.2324   -0.2449 CT        1 <0>        0.13751
      3 C3          1.7466   -0.1146    1.1179 CT        1 <0>        0.13821
      4 C4         -0.9182   -1.3507   -0.3679 CT        1 <0>        0.11379
      5 C5          0.2261    1.6060    0.3644 CT        1 <0>        0.33867
      6 C6         -1.5155    0.0682   -0.4931 CT        1 <0>        0.15827
      7 C7          0.4689    2.4894    1.5853 CT        1 <0>       -0.11753
      8 C8         -3.0208   -0.0302   -0.1844 CT        1 <0>       -0.10529
      9 C9         -1.3483    0.6622   -1.8974 CT        1 <0>       -0.10529
     10 O1          0.3709   -1.4352   -0.9778 OS        1 <0>       -0.40552
     11 O2          1.3551    0.7851    0.0825 OS        1 <0>       -0.43497
     12 O3         -1.0038    0.9069    0.5601 OS        1 <0>       -0.45887
     13 H1          2.8812   -1.9598    1.1918 HC        1 <0>        0.05579
     14 H2          3.0679   -1.0267   -0.2989 HC        1 <0>        0.05579
     15 H3          1.8093   -2.8862   -0.9599 H1        1 <0>        0.03840
     16 H4          0.7941   -2.8882    0.4752 H1        1 <0>        0.03840
     17 H5          0.9084   -0.3931    1.7655 H1        1 <0>        0.03355
     18 H6          2.5086    0.3819    1.7274 H1        1 <0>        0.03355
     19 H7         -0.8764   -1.6264    0.6933 H1        1 <0>        0.03997
     20 H8         -1.5512   -2.0821   -0.8830 H1        1 <0>        0.03997
     21 H9          0.1084    2.2827   -0.4883 H2        1 <0>        0.07418
     22 H10         0.5945    1.8691    2.4716 HC        1 <0>        0.05131
     23 H11        -0.3796    3.1556    1.7344 HC        1 <0>        0.05131
     24 H12         1.3682    3.0856    1.4375 HC        1 <0>        0.05131
     25 H13        -3.4668    0.9552   -0.2654 HC        1 <0>        0.04790
     26 H14        -3.1543   -0.4111    0.8223 HC        1 <0>        0.04790
     27 H15        -3.4875   -0.7032   -0.8957 HC        1 <0>        0.04790
     28 H16        -1.7855    1.6565   -1.9249 HC        1 <0>        0.04790
     29 H17        -1.8497    0.0264   -2.6219 HC        1 <0>        0.04790
     30 H18        -0.2912    0.7248   -2.1409 HC        1 <0>        0.04790
@<TRIPOS>BOND
     1    1    2 1
     2    1    3 1
     3    2   10 1
     4    3   11 1
     5    4    6 1
     6    4   10 1
     7    5    7 1
     8    5   11 1
     9    5   12 1
    10    6    8 1
    11    6    9 1
    12    6   12 1
    13    1   13 1
    14    1   14 1
    15    2   15 1
    16    2   16 1
    17    3   17 1
    18    3   18 1
    19    4   19 1
    20    4   20 1
    21    5   21 1
    22    7   22 1
    23    7   23 1
    24    7   24 1
    25    8   25 1
    26    8   26 1
    27    8   27 1
    28    9   28 1
    29    9   29 1
    30    9   30 1
@<TRIPOS>SUBSTRUCTURE
     1 <0>         1 GROUP 0 A     ****
