@<TRIPOS>MOLECULE
AlkEthOH_r197
   24    24     1     0     0
SMALL
USER_CHARGES

@<TRIPOS>ATOM
      1 C1          0.6209    0.3772   -1.5338 CT        1 <0>       -0.14729
      2 C2          0.6498   -1.1111   -1.8732 CT        1 <0>        0.13116
      3 C3         -0.5145   -1.8253    0.0820 CT        1 <0>        0.31587
      4 C4          0.8982    0.6429   -0.0487 CT        1 <0>        0.11873
      5 C5         -0.3306    0.4637    0.8833 CT        1 <0>        0.16306
      6 C6         -1.2739    1.6796    0.8242 CT        1 <0>       -0.09773
      7 C7          0.1389    0.3062    2.3401 CT        1 <0>       -0.09773
      8 O1         -0.4447   -1.8420   -1.3391 OS        1 <0>       -0.42809
      9 O2         -1.1603   -0.6581    0.5634 OS        1 <0>       -0.43035
     10 O3          1.4162    1.9669    0.1017 OH        1 <0>       -0.59309
     11 H1          1.3852    0.8824   -2.1380 HC        1 <0>        0.06500
     12 H2         -0.3412    0.8133   -1.8245 HC        1 <0>        0.06500
     13 H3          0.6001   -1.2237   -2.9617 H1        1 <0>        0.04713
     14 H4          1.5901   -1.5750   -1.5523 H1        1 <0>        0.04713
     15 H5         -1.1546   -2.6671    0.3635 H2        1 <0>        0.06200
     16 H6          0.4621   -2.0042    0.5473 H2        1 <0>        0.06200
     17 H7          1.7036   -0.0327    0.2748 H1        1 <0>        0.02698
     18 H8         -2.1149    1.5114    1.4882 HC        1 <0>        0.04815
     19 H9         -1.6298    1.8060   -0.1926 HC        1 <0>        0.04815
     20 H10        -0.7328    2.5665    1.1359 HC        1 <0>        0.04815
     21 H11        -0.7262    0.1817    2.9827 HC        1 <0>        0.04815
     22 H12         0.6897    1.1928    2.6356 HC        1 <0>        0.04815
     23 H13         0.7800   -0.5656    2.4164 HC        1 <0>        0.04815
     24 H14         2.2325    1.9995   -0.4183 HO        1 <0>        0.40132
@<TRIPOS>BOND
     1    1    2 1
     2    1    4 1
     3    2    8 1
     4    3    8 1
     5    3    9 1
     6    4    5 1
     7    4   10 1
     8    5    6 1
     9    5    7 1
    10    5    9 1
    11    1   11 1
    12    1   12 1
    13    2   13 1
    14    2   14 1
    15    3   15 1
    16    3   16 1
    17    4   17 1
    18    6   18 1
    19    6   19 1
    20    6   20 1
    21    7   21 1
    22    7   22 1
    23    7   23 1
    24   10   24 1
@<TRIPOS>SUBSTRUCTURE
     1 <0>         1 GROUP 0 A     ****
