@<TRIPOS>MOLECULE
AlkEthOH_r901
   28    28     1     0     0
SMALL
USER_CHARGES

@<TRIPOS>ATOM
      1 C1          0.9134   -0.5505   -0.2610 CT        1 <0>       -0.07494
      2 C2          0.4985   -1.9760   -0.6304 CT        1 <0>       -0.07440
      3 C3          1.8910   -0.3958    0.9064 CT        1 <0>       -0.07556
      4 C4          1.6145   -2.8328   -1.2295 CT        1 <0>       -0.06977
      5 C5          3.3095   -0.8857    0.6109 CT        1 <0>       -0.07165
      6 C6          2.2241   -3.8502   -0.2677 CT        1 <0>       -0.10435
      7 C7          3.6844   -2.2538    1.2103 CT        1 <0>       -0.05341
      8 C8          2.6100   -3.3560    1.1283 CT        1 <0>        0.14911
      9 C9          5.0341   -2.7053    0.6316 CT        1 <0>       -0.08760
     10 O1          3.0939   -4.4868    1.8697 OH        1 <0>       -0.60781
     11 H1          1.3210   -0.0485   -1.1475 HC        1 <0>        0.03730
     12 H2          0.0000   -0.0003    0.0001 HC        1 <0>        0.03730
     13 H3          0.0225   -2.4724    0.2226 HC        1 <0>        0.03755
     14 H4         -0.2870   -1.8832   -1.3925 HC        1 <0>        0.03755
     15 H5          1.9554    0.6807    1.1151 HC        1 <0>        0.03900
     16 H6          1.4855   -0.8447    1.8191 HC        1 <0>        0.03900
     17 H7          1.1883   -3.4068   -2.0635 HC        1 <0>        0.04047
     18 H8          2.3928   -2.2141   -1.6857 HC        1 <0>        0.04047
     19 H9          3.5134   -0.8539   -0.4647 HC        1 <0>        0.04005
     20 H10         4.0063   -0.1531    1.0432 HC        1 <0>        0.04005
     21 H11         1.5029   -4.6704   -0.1402 HC        1 <0>        0.04247
     22 H12         3.0874   -4.3263   -0.7498 HC        1 <0>        0.04247
     23 H13         3.8647   -2.0850    2.2818 HC        1 <0>        0.05661
     24 H14         1.7117   -3.0309    1.6621 H1        1 <0>        0.03129
     25 H15         4.9260   -2.8906   -0.4329 HC        1 <0>        0.03749
     26 H16         5.3526   -3.6167    1.1286 HC        1 <0>        0.03749
     27 H17         5.7736   -1.9264    0.7917 HC        1 <0>        0.03749
     28 H18         2.3627   -5.1186    1.8974 HO        1 <0>        0.39633
@<TRIPOS>BOND
     1    1    2 1
     2    1    3 1
     3    2    4 1
     4    3    5 1
     5    4    6 1
     6    5    7 1
     7    6    8 1
     8    7    8 1
     9    7    9 1
    10    8   10 1
    11    1   11 1
    12    1   12 1
    13    2   13 1
    14    2   14 1
    15    3   15 1
    16    3   16 1
    17    4   17 1
    18    4   18 1
    19    5   19 1
    20    5   20 1
    21    6   21 1
    22    6   22 1
    23    7   23 1
    24    8   24 1
    25    9   25 1
    26    9   26 1
    27    9   27 1
    28   10   28 1
@<TRIPOS>SUBSTRUCTURE
     1 <0>         1 GROUP 0 A     ****
