@<TRIPOS>MOLECULE
AlkEthOH_r166
   15    15     1     0     0
SMALL
USER_CHARGES

@<TRIPOS>ATOM
      1 C1         -0.4303    0.9306    1.2380 CT        1 <0>        0.10072
      2 C2         -0.7616   -0.5543    1.1646 CT        1 <0>        0.10077
      3 C3          0.8276    0.9163   -0.7914 CT        1 <0>        0.32508
      4 C4         -0.2094   -1.2092   -1.0648 CT        1 <0>        0.32508
      5 O1          0.8004    1.2510    0.5940 OS        1 <0>       -0.44423
      6 O2         -1.2384   -0.8563   -0.1432 OS        1 <0>       -0.44423
      7 O3          1.0117   -0.4780   -0.9972 OS        1 <0>       -0.46791
      8 H1         -1.2276    1.5386    0.7951 H1        1 <0>        0.06167
      9 H2         -0.3219    1.2269    2.2860 H1        1 <0>        0.06167
     10 H3          0.0915   -1.1899    1.4282 H1        1 <0>        0.06167
     11 H4         -1.5808   -0.7717    1.8573 H1        1 <0>        0.06167
     12 H5         -0.0522    1.3044   -1.3205 H2        1 <0>        0.06451
     13 H6          1.7058    1.4144   -1.2130 H2        1 <0>        0.06451
     14 H7          0.0306   -2.2682   -0.9230 H2        1 <0>        0.06451
     15 H8         -0.6197   -1.1054   -2.0748 H2        1 <0>        0.06451
@<TRIPOS>BOND
     1    1    2 1
     2    1    5 1
     3    2    6 1
     4    3    5 1
     5    3    7 1
     6    4    6 1
     7    4    7 1
     8    1    8 1
     9    1    9 1
    10    2   10 1
    11    2   11 1
    12    3   12 1
    13    3   13 1
    14    4   14 1
    15    4   15 1
@<TRIPOS>SUBSTRUCTURE
     1 <0>         1 GROUP 0 A     ****
