@<TRIPOS>MOLECULE
AlkEthOH_r335
   26    26     1     0     0
SMALL
USER_CHARGES

@<TRIPOS>ATOM
      1 C1         -1.5969    0.9443   -1.3100 CT        1 <0>       -0.07265
      2 C2         -0.1316    1.3155   -1.5366 CT        1 <0>       -0.07319
      3 C3         -1.9493    0.5289    0.1156 CT        1 <0>       -0.13088
      4 C4          0.8119    0.1167   -1.4139 CT        1 <0>       -0.10431
      5 C5         -1.0723   -0.5879    0.6789 CT        1 <0>        0.33705
      6 C6          1.2468   -0.2236    0.0281 CT        1 <0>        0.15859
      7 C7          1.7922   -1.6581    0.0970 CT        1 <0>       -0.10180
      8 C8          2.3648    0.7332    0.4757 CT        1 <0>       -0.10180
      9 O1          0.2100   -0.0634    0.9988 OS        1 <0>       -0.40658
     10 O2         -1.6755   -1.1056    1.8664 OH        1 <0>       -0.59480
     11 H1         -2.2203    1.8061   -1.5793 HC        1 <0>        0.03926
     12 H2         -1.8784    0.1379   -1.9991 HC        1 <0>        0.03926
     13 H3         -0.0474    1.7061   -2.5585 HC        1 <0>        0.04800
     14 H4          0.1655    2.1301   -0.8678 HC        1 <0>        0.04800
     15 H5         -1.8735    1.4090    0.7679 HC        1 <0>        0.05540
     16 H6         -3.0023    0.2217    0.1413 HC        1 <0>        0.05540
     17 H7          0.3293   -0.7544   -1.8768 HC        1 <0>        0.04541
     18 H8          1.7078    0.3054   -2.0202 HC        1 <0>        0.04541
     19 H9         -1.0029   -1.4291   -0.0378 H2        1 <0>        0.04083
     20 H10         2.0929   -1.8804    1.1163 HC        1 <0>        0.04469
     21 H11         2.6493   -1.7494   -0.5632 HC        1 <0>        0.04469
     22 H12         1.0178   -2.3529   -0.2137 HC        1 <0>        0.04469
     23 H13         2.6636    0.4865    1.4894 HC        1 <0>        0.04469
     24 H14         1.9981    1.7541    0.4418 HC        1 <0>        0.04469
     25 H15         3.2148    0.6284   -0.1910 HC        1 <0>        0.04469
     26 H16        -2.5457   -1.4428    1.6060 HO        1 <0>        0.40526
@<TRIPOS>BOND
     1    1    2 1
     2    1    3 1
     3    2    4 1
     4    3    5 1
     5    4    6 1
     6    5    9 1
     7    5   10 1
     8    6    7 1
     9    6    8 1
    10    6    9 1
    11    1   11 1
    12    1   12 1
    13    2   13 1
    14    2   14 1
    15    3   15 1
    16    3   16 1
    17    4   17 1
    18    4   18 1
    19    5   19 1
    20    7   20 1
    21    7   21 1
    22    7   22 1
    23    8   23 1
    24    8   24 1
    25    8   25 1
    26   10   26 1
@<TRIPOS>SUBSTRUCTURE
     1 <0>         1 GROUP 0 A     ****
