@<TRIPOS>MOLECULE
AlkEthOH_r419
   27    27     1     0     0
SMALL
USER_CHARGES

@<TRIPOS>ATOM
      1 C1          1.5232    1.4018   -0.0820 CT        1 <0>       -0.07057
      2 C2          1.8811    0.6911   -1.3925 CT        1 <0>       -0.10402
      3 C3          1.1766    0.4515    1.0732 CT        1 <0>       -0.06339
      4 C4         -1.2443    0.0613    0.1782 CT        1 <0>       -0.16764
      5 C5          0.7462   -0.1087   -2.0217 CT        1 <0>        0.13525
      6 C6         -0.9336   -1.1773   -0.6687 CT        1 <0>        0.34520
      7 C7         -0.3294    0.3233    1.3896 CT        1 <0>        0.16261
      8 C8         -0.5370   -0.7456    2.4708 CT        1 <0>       -0.12936
      9 O1          0.3946   -1.2024   -1.1820 OS        1 <0>       -0.40734
     10 O2         -1.9062   -1.2688   -1.7096 OH        1 <0>       -0.62482
     11 O3         -0.7712    1.5738    1.9446 OH        1 <0>       -0.59933
     12 H1          2.4087    1.9794    0.2148 HC        1 <0>        0.04612
     13 H2          0.7300    2.1379   -0.2523 HC        1 <0>        0.04612
     14 H3          2.2204    1.4436   -2.1143 HC        1 <0>        0.04720
     15 H4          2.7309    0.0228   -1.2046 HC        1 <0>        0.04720
     16 H5          1.6293   -0.5332    0.9084 HC        1 <0>        0.05812
     17 H6          1.6661    0.8557    1.9710 HC        1 <0>        0.05812
     18 H7         -1.2676    0.9562   -0.4567 HC        1 <0>        0.05736
     19 H8         -2.2858   -0.0119    0.5247 HC        1 <0>        0.05736
     20 H9         -0.1044    0.5347   -2.2698 H1        1 <0>        0.05075
     21 H10         1.1022   -0.5369   -2.9653 H1        1 <0>        0.05075
     22 H11        -1.0504   -2.0691   -0.0443 H2        1 <0>        0.06757
     23 H12        -1.5967   -0.8351    2.6927 HC        1 <0>        0.04481
     24 H13        -0.0015   -0.4583    3.3713 HC        1 <0>        0.04481
     25 H14        -0.1598   -1.6998    2.1137 HC        1 <0>        0.04481
     26 H15        -2.7681   -1.3453   -1.2732 HO        1 <0>        0.40753
     27 H16        -1.7127    1.4619    2.1310 HO        1 <0>        0.39478
@<TRIPOS>BOND
     1    1    2 1
     2    1    3 1
     3    2    5 1
     4    3    7 1
     5    4    6 1
     6    4    7 1
     7    5    9 1
     8    6    9 1
     9    6   10 1
    10    7    8 1
    11    7   11 1
    12    1   12 1
    13    1   13 1
    14    2   14 1
    15    2   15 1
    16    3   16 1
    17    3   17 1
    18    4   18 1
    19    4   19 1
    20    5   20 1
    21    5   21 1
    22    6   22 1
    23    8   23 1
    24    8   24 1
    25    8   25 1
    26   10   26 1
    27   11   27 1
@<TRIPOS>SUBSTRUCTURE
     1 <0>         1 GROUP 0 A     ****
