@<TRIPOS>MOLECULE
AlkEthOH_r366
   37    37     1     0     0
SMALL
USER_CHARGES

@<TRIPOS>ATOM
      1 C1          2.1227   -1.5239   -0.3335 CT        1 <0>       -0.07655
      2 C2          1.7267   -1.1586    1.0958 CT        1 <0>       -0.07637
      3 C3          2.0764   -0.3733   -1.3376 CT        1 <0>       -0.06592
      4 C4          0.4420   -1.8380    1.5660 CT        1 <0>       -0.06592
      5 C5          0.6932    0.1727   -1.7289 CT        1 <0>       -0.09441
      6 C6         -0.8041   -1.5992    0.7084 CT        1 <0>       -0.09441
      7 C7          0.0482    1.2706   -0.8478 CT        1 <0>        0.17010
      8 C8         -1.3950   -0.1701    0.6966 CT        1 <0>        0.17010
      9 C9         -1.0486    1.9974   -1.6525 CT        1 <0>       -0.10463
     10 C10         1.0836    2.3653   -0.5005 CT        1 <0>       -0.10463
     11 C11        -2.6314   -0.1614   -0.2123 CT        1 <0>       -0.10463
     12 C12        -1.8895    0.1780    2.1179 CT        1 <0>       -0.10463
     13 O1         -0.4243    0.8405    0.4285 OS        1 <0>       -0.42674
     14 H1          3.1647   -1.8719   -0.3051 HC        1 <0>        0.04146
     15 H2          1.5483   -2.3768   -0.7118 HC        1 <0>        0.04146
     16 H3          2.5276   -1.5010    1.7653 HC        1 <0>        0.04146
     17 H4          1.6803   -0.0779    1.2446 HC        1 <0>        0.04146
     18 H5          2.7500    0.4276   -1.0177 HC        1 <0>        0.03582
     19 H6          2.5269   -0.7631   -2.2617 HC        1 <0>        0.03582
     20 H7          0.6235   -2.9211    1.5895 HC        1 <0>        0.03582
     21 H8          0.2478   -1.5539    2.6061 HC        1 <0>        0.03582
     22 H9          0.8286    0.6102   -2.7293 HC        1 <0>        0.04120
     23 H10         0.0004   -0.6597   -1.8783 HC        1 <0>        0.04120
     24 H11        -0.6033   -1.9312   -0.3134 HC        1 <0>        0.04120
     25 H12        -1.5804   -2.2877    1.0721 HC        1 <0>        0.04120
     26 H13        -1.4954    2.7638   -1.0300 HC        1 <0>        0.04206
     27 H14        -1.8033    1.2791   -1.9509 HC        1 <0>        0.04206
     28 H15        -0.6025    2.4496   -2.5306 HC        1 <0>        0.04206
     29 H16         0.6055    3.1170    0.1144 HC        1 <0>        0.04206
     30 H17         1.4435    2.8108   -1.4191 HC        1 <0>        0.04206
     31 H18         1.9051    1.9116    0.0391 HC        1 <0>        0.04206
     32 H19        -3.0593    0.8369   -0.2318 HC        1 <0>        0.04206
     33 H20        -3.3668   -0.8633    0.1704 HC        1 <0>        0.04206
     34 H21        -2.3427   -0.4516   -1.2187 HC        1 <0>        0.04206
     35 H22        -2.3036    1.1787    2.1110 HC        1 <0>        0.04206
     36 H23        -1.0525    0.1286    2.8034 HC        1 <0>        0.04206
     37 H24        -2.6502   -0.5353    2.4102 HC        1 <0>        0.04206
@<TRIPOS>BOND
     1    1    2 1
     2    1    3 1
     3    2    4 1
     4    3    5 1
     5    4    6 1
     6    5    7 1
     7    6    8 1
     8    7    9 1
     9    7   10 1
    10    7   13 1
    11    8   11 1
    12    8   12 1
    13    8   13 1
    14    1   14 1
    15    1   15 1
    16    2   16 1
    17    2   17 1
    18    3   18 1
    19    3   19 1
    20    4   20 1
    21    4   21 1
    22    5   22 1
    23    5   23 1
    24    6   24 1
    25    6   25 1
    26    9   26 1
    27    9   27 1
    28    9   28 1
    29   10   29 1
    30   10   30 1
    31   10   31 1
    32   11   32 1
    33   11   33 1
    34   11   34 1
    35   12   35 1
    36   12   36 1
    37   12   37 1
@<TRIPOS>SUBSTRUCTURE
     1 <0>         1 GROUP 0 A     ****
