@<TRIPOS>MOLECULE
AlkEthOH_r924
   19    19     1     0     0
SMALL
USER_CHARGES

@<TRIPOS>ATOM
      1 C1         -0.6991    0.7905   -0.2992 CT        1 <0>       -0.07660
      2 C2         -1.7097    0.2254   -1.2908 CT        1 <0>       -0.11191
      3 C3         -1.4084    1.3346    0.9371 CT        1 <0>       -0.10793
      4 C4         -2.6529   -0.7513   -0.6014 CT        1 <0>        0.12907
      5 C5         -2.3654    0.2889    1.5140 CT        1 <0>        0.13794
      6 C6         -3.1614    0.8590    2.6798 CT        1 <0>       -0.09095
      7 O1         -3.2972   -0.1334    0.5124 OS        1 <0>       -0.41584
      8 H1          0.0001   -0.0000   -0.0001 HC        1 <0>        0.04124
      9 H2         -0.1077    1.5815   -0.7733 HC        1 <0>        0.04124
     10 H3         -2.2942    1.0558   -1.7057 HC        1 <0>        0.04962
     11 H4         -1.1939   -0.2652   -2.1228 HC        1 <0>        0.04962
     12 H5         -0.6716    1.6400    1.6883 HC        1 <0>        0.04961
     13 H6         -1.9724    2.2297    0.6453 HC        1 <0>        0.04961
     14 H7         -3.4314   -1.0731   -1.3004 H1        1 <0>        0.04482
     15 H8         -2.1209   -1.6483   -0.2633 H1        1 <0>        0.04482
     16 H9         -1.8053   -0.5867    1.8660 H1        1 <0>        0.03262
     17 H10        -3.7279    1.7321    2.3544 HC        1 <0>        0.04434
     18 H11        -2.4869    1.1556    3.4836 HC        1 <0>        0.04434
     19 H12        -3.8560    0.1095    3.0604 HC        1 <0>        0.04434
@<TRIPOS>BOND
     1    1    2 1
     2    1    3 1
     3    2    4 1
     4    3    5 1
     5    4    7 1
     6    5    6 1
     7    5    7 1
     8    1    8 1
     9    1    9 1
    10    2   10 1
    11    2   11 1
    12    3   12 1
    13    3   13 1
    14    4   14 1
    15    4   15 1
    16    5   16 1
    17    6   17 1
    18    6   18 1
    19    6   19 1
@<TRIPOS>SUBSTRUCTURE
     1 <0>         1 GROUP 0 A     ****
