@<TRIPOS>MOLECULE
AlkEthOH_r534
   27    27     1     0     0
SMALL
USER_CHARGES

@<TRIPOS>ATOM
      1 C1         -0.6983    1.6169   -0.5680 CT        1 <0>       -0.13631
      2 C2         -0.2643    2.0240    0.8386 CT        1 <0>        0.12732
      3 C3          1.5236    0.4374    0.8109 CT        1 <0>        0.12535
      4 C4         -1.0677    0.1364   -0.7706 CT        1 <0>        0.17657
      5 C5          1.0142   -0.8623    0.1783 CT        1 <0>        0.31999
      6 C6         -2.0552   -0.4004    0.2716 CT        1 <0>       -0.10595
      7 C7         -1.7454    0.0139   -2.1514 CT        1 <0>       -0.10595
      8 C8          2.2051   -1.6001   -0.4436 CT        1 <0>       -0.11641
      9 O1          0.4793    1.0519    1.5542 OS        1 <0>       -0.39587
     10 O2          0.1032   -0.6757   -0.9021 OS        1 <0>       -0.46031
     11 O3          0.5055   -1.7419    1.1821 OH        1 <0>       -0.60577
     12 H1         -1.5547    2.2549   -0.8565 HC        1 <0>        0.05486
     13 H2          0.1062    1.8836   -1.2793 HC        1 <0>        0.05486
     14 H3          0.2679    3.0089    0.8553 H1        1 <0>        0.04555
     15 H4         -1.1842    2.2045    1.4419 H1        1 <0>        0.04555
     16 H5          2.2997    0.2128    1.5294 H1        1 <0>        0.06174
     17 H6          1.8948    1.1278    0.0685 H1        1 <0>        0.06174
     18 H7         -2.2656   -1.4447    0.0631 HC        1 <0>        0.04768
     19 H8         -2.9756    0.1731    0.2235 HC        1 <0>        0.04768
     20 H9         -1.6192   -0.3072    1.2614 HC        1 <0>        0.04768
     21 H10        -2.0183   -1.0215   -2.3238 HC        1 <0>        0.04768
     22 H11        -1.0531    0.3430   -2.9186 HC        1 <0>        0.04768
     23 H12        -2.6342    0.6351   -2.1685 HC        1 <0>        0.04768
     24 H13         1.8607   -2.5252   -0.8971 HC        1 <0>        0.05213
     25 H14         2.9347   -1.8250    0.3291 HC        1 <0>        0.05213
     26 H15         2.6628   -0.9725   -1.2030 HC        1 <0>        0.05213
     27 H16         0.2006   -2.5403    0.7229 HO        1 <0>        0.41057
@<TRIPOS>BOND
     1    1    2 1
     2    1    4 1
     3    2    9 1
     4    3    5 1
     5    3    9 1
     6    4    6 1
     7    4    7 1
     8    4   10 1
     9    5    8 1
    10    5   10 1
    11    5   11 1
    12    1   12 1
    13    1   13 1
    14    2   14 1
    15    2   15 1
    16    3   16 1
    17    3   17 1
    18    6   18 1
    19    6   19 1
    20    6   20 1
    21    7   21 1
    22    7   22 1
    23    7   23 1
    24    8   24 1
    25    8   25 1
    26    8   26 1
    27   11   27 1
@<TRIPOS>SUBSTRUCTURE
     1 <0>         1 GROUP 0 A     ****
