@<TRIPOS>MOLECULE
AlkEthOH_r446
   26    26     1     0     0
SMALL
USER_CHARGES

@<TRIPOS>ATOM
      1 C1          0.0121    0.8026   -1.6863 CT        1 <0>       -0.06345
      2 C2          1.5448    0.7767   -1.6330 CT        1 <0>       -0.09935
      3 C3         -0.6572    1.1474   -0.3504 CT        1 <0>       -0.10511
      4 C4         -0.3647   -1.2791    0.5650 CT        1 <0>       -0.09799
      5 C5          2.1405   -0.2905   -0.7212 CT        1 <0>        0.12932
      6 C6          0.9905   -1.0419    1.2378 CT        1 <0>        0.13664
      7 C7         -1.2706   -0.0400    0.4251 CT        1 <0>        0.15935
      8 C8         -2.6008   -0.4677   -0.2155 CT        1 <0>       -0.12452
      9 O1          1.7788   -0.0281    0.6291 OS        1 <0>       -0.41899
     10 O2         -1.5736    0.4206    1.7494 OH        1 <0>       -0.60203
     11 H1         -0.2668    1.5796   -2.4102 HC        1 <0>        0.03733
     12 H2         -0.3661   -0.1383   -2.0990 HC        1 <0>        0.03733
     13 H3          1.9265    0.6228   -2.6493 HC        1 <0>        0.04676
     14 H4          1.8959    1.7635   -1.3057 HC        1 <0>        0.04676
     15 H5          0.0288    1.7125    0.2936 HC        1 <0>        0.05419
     16 H6         -1.4646    1.8663   -0.5513 HC        1 <0>        0.05419
     17 H7         -0.2142   -1.7335   -0.4204 HC        1 <0>        0.05286
     18 H8         -0.8853   -2.0357    1.1677 HC        1 <0>        0.05286
     19 H9          1.8643   -1.2988   -1.0487 H1        1 <0>        0.03822
     20 H10         3.2329   -0.2281   -0.7765 H1        1 <0>        0.03822
     21 H11         0.8327   -0.7413    2.2792 H1        1 <0>        0.05266
     22 H12         1.5663   -1.9747    1.2631 H1        1 <0>        0.05266
     23 H13        -3.0162   -1.3014    0.3418 HC        1 <0>        0.04135
     24 H14        -2.4241   -0.7685   -1.2433 HC        1 <0>        0.04135
     25 H15        -3.2945    0.3669   -0.1939 HC        1 <0>        0.04135
     26 H16        -2.2022    1.1476    1.6418 HO        1 <0>        0.39804
@<TRIPOS>BOND
     1    1    2 1
     2    1    3 1
     3    2    5 1
     4    3    7 1
     5    4    6 1
     6    4    7 1
     7    5    9 1
     8    6    9 1
     9    7    8 1
    10    7   10 1
    11    1   11 1
    12    1   12 1
    13    2   13 1
    14    2   14 1
    15    3   15 1
    16    3   16 1
    17    4   17 1
    18    4   18 1
    19    5   19 1
    20    5   20 1
    21    6   21 1
    22    6   22 1
    23    8   23 1
    24    8   24 1
    25    8   25 1
    26   10   26 1
@<TRIPOS>SUBSTRUCTURE
     1 <0>         1 GROUP 0 A     ****
