@<TRIPOS>MOLECULE
AlkEthOH_r499
   26    26     1     0     0
SMALL
USER_CHARGES

@<TRIPOS>ATOM
      1 C1          0.5624    1.8532   -0.0512 CT        1 <0>       -0.08921
      2 C2          1.0494    0.6482    0.7634 CT        1 <0>       -0.09475
      3 C3         -0.2726    1.5304   -1.2851 CT        1 <0>        0.12824
      4 C4         -0.3254   -0.6966   -2.1493 CT        1 <0>        0.10914
      5 C5         -0.1298   -1.5208   -0.8828 CT        1 <0>        0.09920
      6 C6         -0.0304   -0.3454    1.2560 CT        1 <0>        0.15548
      7 C7         -1.0320    0.3708    2.1758 CT        1 <0>       -0.10270
      8 C8          0.6271   -1.4787    2.0624 CT        1 <0>       -0.10270
      9 O1          0.3723    0.5472   -2.0900 OS        1 <0>       -0.42104
     10 O2         -0.8210   -0.9084    0.2008 OS        1 <0>       -0.42716
     11 H1          0.0048    2.5446    0.5908 HC        1 <0>        0.04459
     12 H2          1.4577    2.3976   -0.3791 HC        1 <0>        0.04459
     13 H3          1.8006    0.1204    0.1637 HC        1 <0>        0.04913
     14 H4          1.5967    1.0359    1.6335 HC        1 <0>        0.04913
     15 H5         -1.2943    1.2442   -1.0107 H1        1 <0>        0.04782
     16 H6         -0.3613    2.4374   -1.8936 H1        1 <0>        0.04782
     17 H7          0.0893   -1.2500   -2.9981 H1        1 <0>        0.05267
     18 H8         -1.3867   -0.5180   -2.3576 H1        1 <0>        0.05267
     19 H9         -0.5818   -2.5071   -1.0306 H1        1 <0>        0.04945
     20 H10         0.9330   -1.6729   -0.6764 H1        1 <0>        0.04945
     21 H11        -1.7816   -0.3386    2.5123 HC        1 <0>        0.04303
     22 H12        -1.5119    1.1751    1.6273 HC        1 <0>        0.04303
     23 H13        -0.5050    0.7780    3.0330 HC        1 <0>        0.04303
     24 H14        -0.1393   -2.1678    2.4017 HC        1 <0>        0.04303
     25 H15         1.1432   -1.0562    2.9181 HC        1 <0>        0.04303
     26 H16         1.3361   -2.0031    1.4302 HC        1 <0>        0.04303
@<TRIPOS>BOND
     1    1    2 1
     2    1    3 1
     3    2    6 1
     4    3    9 1
     5    4    5 1
     6    4    9 1
     7    5   10 1
     8    6    7 1
     9    6    8 1
    10    6   10 1
    11    1   11 1
    12    1   12 1
    13    2   13 1
    14    2   14 1
    15    3   15 1
    16    3   16 1
    17    4   17 1
    18    4   18 1
    19    5   19 1
    20    5   20 1
    21    7   21 1
    22    7   22 1
    23    7   23 1
    24    8   24 1
    25    8   25 1
    26    8   26 1
@<TRIPOS>SUBSTRUCTURE
     1 <0>         1 GROUP 0 A     ****
