@<TRIPOS>MOLECULE
AlkEthOH_r1021
   29    29     1     0     0
SMALL
USER_CHARGES

@<TRIPOS>ATOM
      1 C1          1.8170   -1.1589   -0.0677 CT        1 <0>       -0.11596
      2 C2         -0.6730    1.1894   -1.0130 CT        1 <0>       -0.13530
      3 C3          1.4386   -0.8977   -1.5248 CT        1 <0>        0.13123
      4 C4         -0.6674    0.0917   -2.0829 CT        1 <0>        0.13937
      5 C5          1.1705   -0.1729    0.9161 CT        1 <0>        0.14549
      6 C6         -1.0519    0.7326    0.4166 CT        1 <0>        0.16450
      7 C7          1.6397   -0.4650    2.3384 CT        1 <0>       -0.10463
      8 C8         -0.9718    1.9189    1.3916 CT        1 <0>       -0.10416
      9 C9         -2.4939    0.2003    0.4360 CT        1 <0>       -0.10416
     10 O1          0.0384   -1.0850   -1.7056 OS        1 <0>       -0.40390
     11 O2         -0.2461   -0.3532    0.8954 OS        1 <0>       -0.40644
     12 H1          1.4931   -2.1760    0.1895 HC        1 <0>        0.05806
     13 H2          2.9081   -1.1185    0.0280 HC        1 <0>        0.05806
     14 H3          0.3220    1.6483   -0.9936 HC        1 <0>        0.04714
     15 H4         -1.3552    1.9852   -1.3396 HC        1 <0>        0.04714
     16 H5          1.7764    0.0921   -1.8526 H1        1 <0>        0.03566
     17 H6          1.9443   -1.6350   -2.1577 H1        1 <0>        0.03566
     18 H7         -1.6972   -0.2108   -2.3004 H1        1 <0>        0.04459
     19 H8         -0.2544    0.4783   -3.0225 H1        1 <0>        0.04459
     20 H9          1.4678    0.8488    0.6607 H1        1 <0>        0.03630
     21 H10         1.3568   -1.4782    2.6211 HC        1 <0>        0.04174
     22 H11         1.1807    0.2387    3.0317 HC        1 <0>        0.04174
     23 H12         2.7229   -0.3683    2.3983 HC        1 <0>        0.04174
     24 H13        -1.2398    1.5829    2.3882 HC        1 <0>        0.04359
     25 H14        -1.6602    2.6941    1.0706 HC        1 <0>        0.04359
     26 H15         0.0407    2.3099    1.3984 HC        1 <0>        0.04359
     27 H16        -2.7464   -0.1163    1.4430 HC        1 <0>        0.04359
     28 H17        -2.5744   -0.6435   -0.2421 HC        1 <0>        0.04359
     29 H18        -3.1715    0.9874    0.1206 HC        1 <0>        0.04359
@<TRIPOS>BOND
     1    1    3 1
     2    1    5 1
     3    2    4 1
     4    2    6 1
     5    3   10 1
     6    4   10 1
     7    5    7 1
     8    5   11 1
     9    6    8 1
    10    6    9 1
    11    6   11 1
    12    1   12 1
    13    1   13 1
    14    2   14 1
    15    2   15 1
    16    3   16 1
    17    3   17 1
    18    4   18 1
    19    4   19 1
    20    5   20 1
    21    7   21 1
    22    7   22 1
    23    7   23 1
    24    8   24 1
    25    8   25 1
    26    8   26 1
    27    9   27 1
    28    9   28 1
    29    9   29 1
@<TRIPOS>SUBSTRUCTURE
     1 <0>         1 GROUP 0 A     ****
