@<TRIPOS>MOLECULE
AlkEthOH_r127
   15    15     1     0     0
SMALL
USER_CHARGES

@<TRIPOS>ATOM
      1 C1          1.4483   -0.8340    0.3150 CT        1 <0>       -0.14868
      2 C2          0.5207   -1.1681   -0.8447 CT        1 <0>        0.13717
      3 C3          0.7017   -0.0205    1.3626 CT        1 <0>        0.13717
      4 C4         -0.7507    0.7576   -0.3324 CT        1 <0>        0.51394
      5 O1         -0.0714    0.0239   -1.3583 OS        1 <0>       -0.44725
      6 O2          0.1022    1.1246    0.7585 OS        1 <0>       -0.44725
      7 O3         -1.9507    0.1165    0.0993 OH        1 <0>       -0.64390
      8 H1          1.8693   -1.7439    0.7534 HC        1 <0>        0.06123
      9 H2          2.2752   -0.2246   -0.0699 HC        1 <0>        0.06123
     10 H3          1.0824   -1.6425   -1.6554 H1        1 <0>        0.05896
     11 H4         -0.2681   -1.8635   -0.5356 H1        1 <0>        0.05896
     12 H5         -0.0723   -0.6206    1.8549 H1        1 <0>        0.05896
     13 H6          1.3932    0.3277    2.1362 H1        1 <0>        0.05896
     14 H7         -1.0511    1.7020   -0.7983 H3        1 <0>        0.11508
     15 H8         -2.5211    0.0484   -0.6812 HO        1 <0>        0.42542
@<TRIPOS>BOND
     1    1    2 1
     2    1    3 1
     3    2    5 1
     4    3    6 1
     5    4    5 1
     6    4    6 1
     7    4    7 1
     8    1    8 1
     9    1    9 1
    10    2   10 1
    11    2   11 1
    12    3   12 1
    13    3   13 1
    14    4   14 1
    15    7   15 1
@<TRIPOS>SUBSTRUCTURE
     1 <0>         1 GROUP 0 A     ****
