@<TRIPOS>MOLECULE
AlkEthOH_r254
   27    27     1     0     0
SMALL
USER_CHARGES

@<TRIPOS>ATOM
      1 C1         -0.5247    1.1542   -0.0314 CT        1 <0>       -0.13443
      2 C2          1.8116   -1.3242    0.7037 CT        1 <0>        0.10575
      3 C3          1.7296   -0.6661   -0.6674 CT        1 <0>        0.09725
      4 C4         -0.3508   -0.8472    1.6105 CT        1 <0>        0.13405
      5 C5         -1.0938    0.4194    1.1915 CT        1 <0>        0.12933
      6 C6         -0.3928    0.3368   -1.3384 CT        1 <0>        0.16160
      7 C7          0.1691    1.2259   -2.4613 CT        1 <0>       -0.10403
      8 C8         -1.7705   -0.1767   -1.7867 CT        1 <0>       -0.10403
      9 O1          1.0556   -0.6104    1.6811 OS        1 <0>       -0.40664
     10 O2          0.4218   -0.8351   -1.2040 OS        1 <0>       -0.42783
     11 O3         -1.0550    1.3233    2.3023 OH        1 <0>       -0.59088
     12 H1         -1.1610    2.0309   -0.2210 HC        1 <0>        0.05703
     13 H2          0.4446    1.5876    0.2472 HC        1 <0>        0.05703
     14 H3          1.4884   -2.3712    0.6723 H1        1 <0>        0.05509
     15 H4          2.8533   -1.3100    1.0400 H1        1 <0>        0.05509
     16 H5          2.0343    0.3825   -0.6156 H1        1 <0>        0.05128
     17 H6          2.4200   -1.1773   -1.3463 H1        1 <0>        0.05128
     18 H7         -0.6648   -1.1409    2.6183 H1        1 <0>        0.06138
     19 H8         -0.5937   -1.6839    0.9461 H1        1 <0>        0.06138
     20 H9         -2.1493    0.1755    1.0292 H1        1 <0>        0.03075
     21 H10         0.2564    0.6411   -3.3710 HC        1 <0>        0.04433
     22 H11         1.1464    1.5959   -2.1695 HC        1 <0>        0.04433
     23 H12        -0.5035    2.0611   -2.6268 HC        1 <0>        0.04433
     24 H13        -1.6604   -0.7472   -2.7036 HC        1 <0>        0.04433
     25 H14        -2.4297    0.6680   -1.9603 HC        1 <0>        0.04433
     26 H15        -2.1875   -0.8110   -1.0107 HC        1 <0>        0.04433
     27 H16        -1.6011    2.0816    2.0510 HO        1 <0>        0.39357
@<TRIPOS>BOND
     1    1    5 1
     2    1    6 1
     3    2    3 1
     4    2    9 1
     5    3   10 1
     6    4    5 1
     7    4    9 1
     8    5   11 1
     9    6    7 1
    10    6    8 1
    11    6   10 1
    12    1   12 1
    13    1   13 1
    14    2   14 1
    15    2   15 1
    16    3   16 1
    17    3   17 1
    18    4   18 1
    19    4   19 1
    20    5   20 1
    21    7   21 1
    22    7   22 1
    23    7   23 1
    24    8   24 1
    25    8   25 1
    26    8   26 1
    27   11   27 1
@<TRIPOS>SUBSTRUCTURE
     1 <0>         1 GROUP 0 A     ****
