@<TRIPOS>MOLECULE
AlkEthOH_r570
   20    20     1     0     0
SMALL
USER_CHARGES

@<TRIPOS>ATOM
      1 C1          0.1552    1.1334    0.6422 CT        1 <0>       -0.13735
      2 C2         -0.6361    1.5881   -0.5781 CT        1 <0>        0.13028
      3 C3         -1.1109   -0.6548   -1.0777 CT        1 <0>        0.32048
      4 C4          0.6722   -0.3083    0.4811 CT        1 <0>        0.15275
      5 C5          1.8525   -0.3935   -0.4974 CT        1 <0>       -0.10237
      6 C6          1.1301   -0.8460    1.8426 CT        1 <0>       -0.10237
      7 O1         -1.6629    0.6414   -0.8632 OS        1 <0>       -0.43808
      8 O2         -0.4000   -1.1603    0.0506 OS        1 <0>       -0.43422
      9 H1          0.9736    1.8304    0.8535 HC        1 <0>        0.06035
     10 H2         -0.5312    1.1620    1.4992 HC        1 <0>        0.06035
     11 H3         -1.1129    2.5533   -0.3794 H1        1 <0>        0.05029
     12 H4          0.0034    1.7126   -1.4588 H1        1 <0>        0.05029
     13 H5         -1.9454   -1.3368   -1.2665 H2        1 <0>        0.05938
     14 H6         -0.4832   -0.6620   -1.9759 H2        1 <0>        0.05938
     15 H7          2.1811   -1.4255   -0.5776 HC        1 <0>        0.04514
     16 H8          2.6701    0.2203   -0.1310 HC        1 <0>        0.04514
     17 H9          1.5386   -0.0353   -1.4735 HC        1 <0>        0.04514
     18 H10         1.4945   -1.8630    1.7269 HC        1 <0>        0.04514
     19 H11         0.2932   -0.8382    2.5355 HC        1 <0>        0.04514
     20 H12         1.9273   -0.2179    2.2309 HC        1 <0>        0.04514
@<TRIPOS>BOND
     1    1    2 1
     2    1    4 1
     3    2    7 1
     4    3    7 1
     5    3    8 1
     6    4    5 1
     7    4    6 1
     8    4    8 1
     9    1    9 1
    10    1   10 1
    11    2   11 1
    12    2   12 1
    13    3   13 1
    14    3   14 1
    15    5   15 1
    16    5   16 1
    17    5   17 1
    18    6   18 1
    19    6   19 1
    20    6   20 1
@<TRIPOS>SUBSTRUCTURE
     1 <0>         1 GROUP 0 A     ****
