@<TRIPOS>MOLECULE
AlkEthOH_r122
   15    15     1     0     0
SMALL
USER_CHARGES

@<TRIPOS>ATOM
      1 C1          0.9185   -0.1569    0.5774 CT        1 <0>        0.08923
      2 C2          1.6592    1.1495    0.8017 CT        1 <0>        0.09603
      3 C3         -0.2622    0.1443    2.5897 CT        1 <0>        0.06555
      4 C4          0.4431    1.4791    2.8076 CT        1 <0>        0.30276
      5 O1          0.5788   -0.7361    1.8382 OS        1 <0>       -0.40653
      6 O2          0.8468    2.0482    1.5589 OS        1 <0>       -0.40688
      7 O3          1.5293    1.3414    3.7201 OH        1 <0>       -0.61144
      8 H1          0.0000    0.0004    0.0001 H1        1 <0>        0.05906
      9 H2          1.5491   -0.8664    0.0337 H1        1 <0>        0.05906
     10 H3          2.6001    0.9840    1.3383 H1        1 <0>        0.06921
     11 H4          1.8929    1.6256   -0.1552 H1        1 <0>        0.06921
     12 H5         -0.4788   -0.3441    3.5447 H1        1 <0>        0.06152
     13 H6         -1.2019    0.2792    2.0420 H1        1 <0>        0.06152
     14 H7         -0.2769    2.1859    3.2637 H2        1 <0>        0.08009
     15 H8          1.1509    1.0229    4.5543 HO        1 <0>        0.41161
@<TRIPOS>BOND
     1    1    2 1
     2    1    5 1
     3    2    6 1
     4    3    4 1
     5    3    5 1
     6    4    6 1
     7    4    7 1
     8    1    8 1
     9    1    9 1
    10    2   10 1
    11    2   11 1
    12    3   12 1
    13    3   13 1
    14    4   14 1
    15    7   15 1
@<TRIPOS>SUBSTRUCTURE
     1 <0>         1 GROUP 0 A     ****
