@<TRIPOS>MOLECULE
AlkEthOH_r184
   32    32     1     0     0
SMALL
USER_CHARGES

@<TRIPOS>ATOM
      1 C1         -0.8949   -2.1657   -0.8348 CT        1 <0>       -0.06641
      2 C2          0.5891   -1.8210   -0.9763 CT        1 <0>       -0.06952
      3 C3         -1.4154   -2.1326    0.6059 CT        1 <0>       -0.09022
      4 C4          0.9168   -0.4108   -1.4884 CT        1 <0>       -0.09060
      5 C5         -1.3389   -0.7709    1.2835 CT        1 <0>        0.13022
      6 C6          0.2945    0.8308   -0.7943 CT        1 <0>        0.14074
      7 C7          0.4328    0.8579    0.7745 CT        1 <0>        0.17989
      8 C8          0.9108    2.0870   -1.4507 CT        1 <0>       -0.12675
      9 C9         -0.3283    2.0288    1.4307 CT        1 <0>       -0.10331
     10 C10         1.9113    0.9787    1.2008 CT        1 <0>       -0.10331
     11 O1          0.0178   -0.3720    1.3932 OS        1 <0>       -0.42369
     12 O2         -1.0956    0.8896   -1.1441 OH        1 <0>       -0.60583
     13 H1         -1.5171   -1.5463   -1.4881 HC        1 <0>        0.03584
     14 H2         -1.0318   -3.1956   -1.1914 HC        1 <0>        0.03584
     15 H3          1.1335   -2.0268   -0.0476 HC        1 <0>        0.04682
     16 H4          1.0190   -2.5186   -1.7088 HC        1 <0>        0.04682
     17 H5         -2.4574   -2.4733    0.6116 HC        1 <0>        0.04200
     18 H6         -0.8400   -2.8574    1.1963 HC        1 <0>        0.04200
     19 H7          2.0107   -0.3159   -1.4832 HC        1 <0>        0.03727
     20 H8          0.6202   -0.3883   -2.5472 HC        1 <0>        0.03727
     21 H9         -1.9767   -0.0459    0.7751 H1        1 <0>        0.05024
     22 H10        -1.7272   -0.8655    2.3037 H1        1 <0>        0.05024
     23 H11         0.4915    2.9683   -0.9824 HC        1 <0>        0.04308
     24 H12         0.6762    2.0809   -2.5074 HC        1 <0>        0.04308
     25 H13         1.9838    2.0658   -1.3083 HC        1 <0>        0.04308
     26 H14        -0.1887    1.9838    2.5043 HC        1 <0>        0.04595
     27 H15        -1.3818    1.9435    1.1919 HC        1 <0>        0.04595
     28 H16         0.0624    2.9638    1.0468 HC        1 <0>        0.04595
     29 H17         1.9657    0.9942    2.2825 HC        1 <0>        0.04595
     30 H18         2.3203    1.8966    0.7968 HC        1 <0>        0.04595
     31 H19         2.4595    0.1279    0.8150 HC        1 <0>        0.04595
     32 H20        -1.1256    0.9655   -2.1079 HO        1 <0>        0.39951
@<TRIPOS>BOND
     1    1    2 1
     2    1    3 1
     3    2    4 1
     4    3    5 1
     5    4    6 1
     6    5   11 1
     7    6    7 1
     8    6    8 1
     9    6   12 1
    10    7    9 1
    11    7   10 1
    12    7   11 1
    13    1   13 1
    14    1   14 1
    15    2   15 1
    16    2   16 1
    17    3   17 1
    18    3   18 1
    19    4   19 1
    20    4   20 1
    21    5   21 1
    22    5   22 1
    23    8   23 1
    24    8   24 1
    25    8   25 1
    26    9   26 1
    27    9   27 1
    28    9   28 1
    29   10   29 1
    30   10   30 1
    31   10   31 1
    32   12   32 1
@<TRIPOS>SUBSTRUCTURE
     1 <0>         1 GROUP 0 A     ****
