@<TRIPOS>MOLECULE
AlkEthOH_r259
   17    17     1     0     0
SMALL
USER_CHARGES

@<TRIPOS>ATOM
      1 C1         -0.4832    0.9601    0.4937 CT        1 <0>       -0.11897
      2 C2         -0.6270   -0.4592    1.0447 CT        1 <0>        0.31120
      3 C3          0.1427    0.2819   -0.7371 CT        1 <0>        0.14248
      4 C4         -0.7101    0.3175   -1.9967 CT        1 <0>       -0.09720
      5 C5          1.5959    0.6457   -1.0078 CT        1 <0>       -0.09720
      6 O1          0.0554   -1.0208   -0.1036 OS        1 <0>       -0.45660
      7 O2          0.0279   -0.7220    2.2965 OH        1 <0>       -0.59984
      8 H1         -1.4303    1.4808    0.3252 HC        1 <0>        0.07293
      9 H2          0.1853    1.6095    1.0670 HC        1 <0>        0.07293
     10 H3         -1.6647   -0.8109    1.0756 H2        1 <0>        0.06333
     11 H4         -0.1913   -0.1836   -2.8149 HC        1 <0>        0.04776
     12 H5         -0.9087    1.3503   -2.2858 HC        1 <0>        0.04776
     13 H6         -1.6605   -0.1879   -1.8203 HC        1 <0>        0.04776
     14 H7          1.9540    0.1211   -1.8942 HC        1 <0>        0.04776
     15 H8          2.2167    0.3643   -0.1566 HC        1 <0>        0.04776
     16 H9          1.6883    1.7198   -1.1721 HC        1 <0>        0.04776
     17 H10        -0.1570   -1.6481    2.5023 HO        1 <0>        0.42038
@<TRIPOS>BOND
     1    1    2 1
     2    1    3 1
     3    2    6 1
     4    2    7 1
     5    3    4 1
     6    3    5 1
     7    3    6 1
     8    1    8 1
     9    1    9 1
    10    2   10 1
    11    4   11 1
    12    4   12 1
    13    4   13 1
    14    5   14 1
    15    5   15 1
    16    5   16 1
    17    7   17 1
@<TRIPOS>SUBSTRUCTURE
     1 <0>         1 GROUP 0 A     ****
