@<TRIPOS>MOLECULE
AlkEthOH_r978
   22    22     1     0     0
SMALL
USER_CHARGES

@<TRIPOS>ATOM
      1 C1          0.4534   -1.6203    0.4470 CT        1 <0>       -0.10995
      2 C2         -0.6280   -1.1148   -0.5061 CT        1 <0>       -0.06857
      3 C3         -0.0266    1.3956   -0.4680 CT        1 <0>       -0.10405
      4 C4          0.5152   -0.8910    1.7861 CT        1 <0>        0.13199
      5 C5          0.8720    1.2367    0.7517 CT        1 <0>        0.13144
      6 C6         -0.1870    0.1205   -1.3117 CT        1 <0>       -0.06218
      7 C7         -1.1850    0.3844   -2.4448 CT        1 <0>       -0.09163
      8 O1          0.1859    0.4890    1.7458 OS        1 <0>       -0.41942
      9 H1          0.2941   -2.6869    0.6493 HC        1 <0>        0.04314
     10 H2          1.4312   -1.5584   -0.0468 HC        1 <0>        0.04314
     11 H3         -0.8458   -1.9258   -1.2134 HC        1 <0>        0.04662
     12 H4         -1.5604   -0.9157    0.0361 HC        1 <0>        0.04662
     13 H5         -1.0178    1.7314   -0.1361 HC        1 <0>        0.04947
     14 H6          0.3855    2.1878   -1.1052 HC        1 <0>        0.04947
     15 H7         -0.1960   -1.3565    2.4778 H1        1 <0>        0.04165
     16 H8          1.5083   -1.0094    2.2349 H1        1 <0>        0.04165
     17 H9          1.8489    0.8048    0.5055 H1        1 <0>        0.04341
     18 H10         1.0556    2.2289    1.1778 H1        1 <0>        0.04341
     19 H11         0.7821   -0.1007   -1.7790 HC        1 <0>        0.04173
     20 H12        -2.1618    0.6085   -2.0241 HC        1 <0>        0.03402
     21 H13        -1.2580   -0.4963   -3.0775 HC        1 <0>        0.03402
     22 H14        -0.8455    1.2288   -3.0390 HC        1 <0>        0.03402
@<TRIPOS>BOND
     1    1    2 1
     2    1    4 1
     3    2    6 1
     4    3    5 1
     5    3    6 1
     6    4    8 1
     7    5    8 1
     8    6    7 1
     9    1    9 1
    10    1   10 1
    11    2   11 1
    12    2   12 1
    13    3   13 1
    14    3   14 1
    15    4   15 1
    16    4   16 1
    17    5   17 1
    18    5   18 1
    19    6   19 1
    20    7   20 1
    21    7   21 1
    22    7   22 1
@<TRIPOS>SUBSTRUCTURE
     1 <0>         1 GROUP 0 A     ****
