@<TRIPOS>MOLECULE
AlkEthOH_r687
   27    27     1     0     0
SMALL
USER_CHARGES

@<TRIPOS>ATOM
      1 C1         -1.0932    0.4372    1.8633 CT        1 <0>       -0.10489
      2 C2         -0.8366    1.5334    0.8289 CT        1 <0>       -0.13286
      3 C3         -1.3362   -0.9304    1.2472 CT        1 <0>        0.13589
      4 C4          0.3433    1.2705   -0.1207 CT        1 <0>        0.37114
      5 C5          0.1453   -1.1284   -0.6541 CT        1 <0>        0.37224
      6 C6          0.5759    2.5261   -0.9700 CT        1 <0>       -0.10915
      7 C7         -0.7751   -1.9483   -1.5709 CT        1 <0>       -0.10731
      8 C8          1.5860   -1.5784   -0.9338 CT        1 <0>       -0.10731
      9 O1         -0.1252   -1.4451    0.7126 OS        1 <0>       -0.43807
     10 O2         -0.0028    0.2378   -1.0482 OS        1 <0>       -0.46351
     11 O3          1.5187    1.0257    0.6456 OH        1 <0>       -0.60610
     12 H1         -0.2393    0.3842    2.5495 HC        1 <0>        0.05133
     13 H2         -1.9686    0.7214    2.4590 HC        1 <0>        0.05133
     14 H3         -1.7537    1.6773    0.2430 HC        1 <0>        0.05459
     15 H4         -0.6554    2.4617    1.3862 HC        1 <0>        0.05459
     16 H5         -1.6445   -1.6187    2.0416 H1        1 <0>        0.04994
     17 H6         -2.1460   -0.9056    0.5122 H1        1 <0>        0.04994
     18 H7          1.4081    2.3566   -1.6478 HC        1 <0>        0.05016
     19 H8          0.8044    3.3664   -0.3200 HC        1 <0>        0.05016
     20 H9         -0.3197    2.7463   -1.5447 HC        1 <0>        0.05016
     21 H10        -1.8068   -1.6560   -1.4002 HC        1 <0>        0.05261
     22 H11        -0.6553   -3.0046   -1.3501 HC        1 <0>        0.05261
     23 H12        -0.5107   -1.7611   -2.6073 HC        1 <0>        0.05261
     24 H13         2.2687   -1.0184   -0.3013 HC        1 <0>        0.05261
     25 H14         1.8256   -1.3955   -1.9773 HC        1 <0>        0.05261
     26 H15         1.6811   -2.6392   -0.7202 HC        1 <0>        0.05261
     27 H16         1.6727    1.8214    1.1786 HO        1 <0>        0.41207
@<TRIPOS>BOND
     1    1    2 1
     2    1    3 1
     3    2    4 1
     4    3    9 1
     5    4    6 1
     6    4   10 1
     7    4   11 1
     8    5    7 1
     9    5    8 1
    10    5    9 1
    11    5   10 1
    12    1   12 1
    13    1   13 1
    14    2   14 1
    15    2   15 1
    16    3   16 1
    17    3   17 1
    18    6   18 1
    19    6   19 1
    20    6   20 1
    21    7   21 1
    22    7   22 1
    23    7   23 1
    24    8   24 1
    25    8   25 1
    26    8   26 1
    27   11   27 1
@<TRIPOS>SUBSTRUCTURE
     1 <0>         1 GROUP 0 A     ****
