@<TRIPOS>MOLECULE
AlkEthOH_r1139
   25    25     1     0     0
SMALL
USER_CHARGES

@<TRIPOS>ATOM
      1 C1          1.0448   -1.0431   -1.4556 CT        1 <0>       -0.14737
      2 C2          1.5705   -1.7453   -0.2027 CT        1 <0>        0.14019
      3 C3          1.4419    0.4315   -1.5331 CT        1 <0>        0.14655
      4 C4         -0.2472   -1.3931    1.3143 CT        1 <0>        0.09087
      5 C5         -1.0119   -0.0723    1.3401 CT        1 <0>        0.31953
      6 C6         -0.4186    1.5072   -0.3641 CT        1 <0>        0.34402
      7 C7         -0.9878    2.1029   -1.6476 CT        1 <0>       -0.11985
      8 O1          1.1223   -1.1457    1.0079 OS        1 <0>       -0.39916
      9 O2          0.9823    1.2310   -0.4482 OS        1 <0>       -0.43545
     10 O3         -1.2258    0.3869    0.0044 OS        1 <0>       -0.48865
     11 O4         -2.2705   -0.2600    1.9845 OH        1 <0>       -0.60385
     12 H1          1.4437   -1.5594   -2.3368 HC        1 <0>        0.05987
     13 H2         -0.0435   -1.1375   -1.5051 HC        1 <0>        0.05987
     14 H3          1.3045   -2.8090   -0.2125 H1        1 <0>        0.04368
     15 H4          2.6649   -1.6940   -0.1965 H1        1 <0>        0.04368
     16 H5          2.5361    0.4970   -1.5202 H1        1 <0>        0.04464
     17 H6          1.1303    0.8644   -2.4889 H1        1 <0>        0.04464
     18 H7         -0.2795   -1.8593    2.3054 H1        1 <0>        0.05490
     19 H8         -0.7074   -2.1002    0.6132 H1        1 <0>        0.05490
     20 H9         -0.4434    0.6804    1.9241 H2        1 <0>        0.09590
     21 H10        -0.5304    2.2749    0.4100 H2        1 <0>        0.07499
     22 H11        -0.9047    1.3820   -2.4603 HC        1 <0>        0.05429
     23 H12        -0.4368    3.0040   -1.9150 HC        1 <0>        0.05429
     24 H13        -2.0375    2.3577   -1.5051 HC        1 <0>        0.05429
     25 H14        -2.7488   -0.9258    1.4667 HO        1 <0>        0.41323
@<TRIPOS>BOND
     1    1    2 1
     2    1    3 1
     3    2    8 1
     4    3    9 1
     5    4    5 1
     6    4    8 1
     7    5   10 1
     8    5   11 1
     9    6    7 1
    10    6    9 1
    11    6   10 1
    12    1   12 1
    13    1   13 1
    14    2   14 1
    15    2   15 1
    16    3   16 1
    17    3   17 1
    18    4   18 1
    19    4   19 1
    20    5   20 1
    21    6   21 1
    22    7   22 1
    23    7   23 1
    24    7   24 1
    25   11   25 1
@<TRIPOS>SUBSTRUCTURE
     1 <0>         1 GROUP 0 A     ****
