@<TRIPOS>MOLECULE
AlkEthOH_r191
   23    23     1     0     0
SMALL
USER_CHARGES

@<TRIPOS>ATOM
      1 C1         -0.3765    0.8832    1.9210 CT        1 <0>       -0.10803
      2 C2         -0.4270   -0.5966    1.5725 CT        1 <0>       -0.11496
      3 C3         -0.6491    1.7383    0.6930 CT        1 <0>        0.12869
      4 C4          0.4816   -0.8932    0.3802 CT        1 <0>        0.11884
      5 C5          0.2007    0.0482   -0.8121 CT        1 <0>        0.16019
      6 C6         -1.1309   -0.2533   -1.5210 CT        1 <0>       -0.09765
      7 C7          1.3254   -0.0897   -1.8513 CT        1 <0>       -0.09765
      8 O1          0.2401    1.4172   -0.3749 OS        1 <0>       -0.41729
      9 O2          0.3356   -2.2542   -0.0075 OH        1 <0>       -0.59473
     10 H1         -1.0965    1.1138    2.7131 HC        1 <0>        0.05127
     11 H2          0.6236    1.1175    2.3063 HC        1 <0>        0.05127
     12 H3         -0.1203   -1.2004    2.4351 HC        1 <0>        0.04836
     13 H4         -1.4576   -0.9012    1.3528 HC        1 <0>        0.04836
     14 H5         -1.6873    1.6410    0.3594 H1        1 <0>        0.04844
     15 H6         -0.4942    2.7935    0.9412 H1        1 <0>        0.04844
     16 H7          1.5205   -0.7510    0.7116 H1        1 <0>        0.04256
     17 H8         -1.2640    0.4414   -2.3439 HC        1 <0>        0.04723
     18 H9         -1.9464   -0.1420   -0.8138 HC        1 <0>        0.04723
     19 H10        -1.1126   -1.2698   -1.9005 HC        1 <0>        0.04723
     20 H11         1.1244    0.5729   -2.6869 HC        1 <0>        0.04723
     21 H12         1.3661   -1.1162   -2.2010 HC        1 <0>        0.04723
     22 H13         2.2718    0.1777   -1.3926 HC        1 <0>        0.04723
     23 H14         0.5893   -2.7912    0.7600 HO        1 <0>        0.40051
@<TRIPOS>BOND
     1    1    2 1
     2    1    3 1
     3    2    4 1
     4    3    8 1
     5    4    5 1
     6    4    9 1
     7    5    6 1
     8    5    7 1
     9    5    8 1
    10    1   10 1
    11    1   11 1
    12    2   12 1
    13    2   13 1
    14    3   14 1
    15    3   15 1
    16    4   16 1
    17    6   17 1
    18    6   18 1
    19    6   19 1
    20    7   20 1
    21    7   21 1
    22    7   22 1
    23    9   23 1
@<TRIPOS>SUBSTRUCTURE
     1 <0>         1 GROUP 0 A     ****
