@<TRIPOS>MOLECULE
AlkEthOH_r910
   31    31     1     0     0
SMALL
USER_CHARGES

@<TRIPOS>ATOM
      1 C1          0.0272   -2.1861    0.4079 CT        1 <0>       -0.07036
      2 C2         -0.9497   -1.8417   -0.7168 CT        1 <0>       -0.06617
      3 C3         -0.3152   -1.6211    1.7911 CT        1 <0>       -0.09277
      4 C4         -1.1845   -0.3719   -1.0744 CT        1 <0>       -0.07652
      5 C5          1.0908    0.8703   -0.6085 CT        1 <0>       -0.10017
      6 C6          0.4002   -0.3145    2.1248 CT        1 <0>        0.13253
      7 C7         -0.0028    0.4580   -1.6174 CT        1 <0>       -0.04955
      8 C8          0.6314    1.5819    0.6761 CT        1 <0>        0.14861
      9 C9          0.6503   -0.2268   -2.8249 CT        1 <0>       -0.09180
     10 C10        -0.1121    2.8804    0.3767 CT        1 <0>       -0.09213
     11 O1         -0.2355    0.7715    1.4654 OS        1 <0>       -0.42336
     12 H1          0.0070   -3.2813    0.4986 HC        1 <0>        0.03438
     13 H2          1.0558   -1.9506    0.1236 HC        1 <0>        0.03438
     14 H3         -0.6346   -2.3816   -1.6184 HC        1 <0>        0.03314
     15 H4         -1.9256   -2.2724   -0.4541 HC        1 <0>        0.03314
     16 H5         -1.4002   -1.5026    1.8926 HC        1 <0>        0.04893
     17 H6          0.0005   -2.3616    2.5367 HC        1 <0>        0.04893
     18 H7         -1.9494   -0.3744   -1.8652 HC        1 <0>        0.04900
     19 H8         -1.6757    0.1419   -0.2440 HC        1 <0>        0.04900
     20 H9          1.6872   -0.0063   -0.3434 HC        1 <0>        0.04158
     21 H10         1.7900    1.5420   -1.1260 HC        1 <0>        0.04158
     22 H11         0.3041   -0.1260    3.1998 H1        1 <0>        0.03565
     23 H12         1.4724   -0.3804    1.9071 H1        1 <0>        0.03565
     24 H13        -0.4423    1.3896   -2.0002 HC        1 <0>        0.03951
     25 H14         1.5149    1.8390    1.2748 H1        1 <0>        0.02612
     26 H15         1.1060   -1.1611   -2.5088 HC        1 <0>        0.03247
     27 H16         1.4128    0.4248   -3.2423 HC        1 <0>        0.03247
     28 H17        -0.1053   -0.4295   -3.5789 HC        1 <0>        0.03247
     29 H18        -0.9999    2.6703   -0.2184 HC        1 <0>        0.04443
     30 H19         0.5353    3.5585   -0.1778 HC        1 <0>        0.04443
     31 H20        -0.4131    3.3581    1.3082 HC        1 <0>        0.04443
@<TRIPOS>BOND
     1    1    2 1
     2    1    3 1
     3    2    4 1
     4    3    6 1
     5    4    7 1
     6    5    7 1
     7    5    8 1
     8    6   11 1
     9    7    9 1
    10    8   10 1
    11    8   11 1
    12    1   12 1
    13    1   13 1
    14    2   14 1
    15    2   15 1
    16    3   16 1
    17    3   17 1
    18    4   18 1
    19    4   19 1
    20    5   20 1
    21    5   21 1
    22    6   22 1
    23    6   23 1
    24    7   24 1
    25    8   25 1
    26    9   26 1
    27    9   27 1
    28    9   28 1
    29   10   29 1
    30   10   30 1
    31   10   31 1
@<TRIPOS>SUBSTRUCTURE
     1 <0>         1 GROUP 0 A     ****
