@<TRIPOS>MOLECULE
AlkEthOH_r582
   29    29     1     0     0
SMALL
USER_CHARGES

@<TRIPOS>ATOM
      1 C1         -1.3813    1.0082   -0.0317 CT        1 <0>       -0.10172
      2 C2         -2.1164   -0.3072   -0.2672 CT        1 <0>        0.14176
      3 C3         -0.4803   -1.8991   -0.9271 CT        1 <0>        0.33427
      4 C4          0.0154    0.9044    0.6546 CT        1 <0>       -0.05620
      5 C5          0.9853   -0.1173   -0.0702 CT        1 <0>        0.17371
      6 C6          0.6025    2.3373    0.6750 CT        1 <0>       -0.08802
      7 C7         -0.2200    0.4930    2.1325 CT        1 <0>       -0.08802
      8 C8          2.3483   -0.2308    0.6519 CT        1 <0>       -0.10941
      9 C9          1.3083    0.2588   -1.5319 CT        1 <0>       -0.10941
     10 O1         -1.5027   -1.0042   -1.3394 OS        1 <0>       -0.46039
     11 O2          0.4409   -1.4429    0.0534 OS        1 <0>       -0.45469
     12 H1         -1.2659    1.5170   -0.9977 HC        1 <0>        0.04910
     13 H2         -2.0300    1.6544    0.5749 HC        1 <0>        0.04910
     14 H3         -2.1981   -0.9287    0.6308 H1        1 <0>        0.05115
     15 H4         -3.1379   -0.0772   -0.5894 H1        1 <0>        0.05115
     16 H5         -0.9572   -2.8017   -0.5296 H2        1 <0>        0.05561
     17 H6          0.0746   -2.2118   -1.8178 H2        1 <0>        0.05561
     18 H7          1.5761    2.3076    1.1456 HC        1 <0>        0.03718
     19 H8         -0.0639    2.9782    1.2365 HC        1 <0>        0.03718
     20 H9          0.6909    2.6914   -0.3433 HC        1 <0>        0.03718
     21 H10         0.7385    0.4158    2.6255 HC        1 <0>        0.03718
     22 H11        -0.7281   -0.4607    2.1478 HC        1 <0>        0.03718
     23 H12        -0.8273    1.2498    2.6082 HC        1 <0>        0.03718
     24 H13         2.9693   -0.9382    0.1177 HC        1 <0>        0.04722
     25 H14         2.1800   -0.5745    1.6643 HC        1 <0>        0.04722
     26 H15         2.8200    0.7433    0.6635 HC        1 <0>        0.04722
     27 H16         1.9730   -0.4878   -1.9497 HC        1 <0>        0.04722
     28 H17         1.7872    1.2303   -1.5486 HC        1 <0>        0.04722
     29 H18         0.3862    0.2916   -2.0997 HC        1 <0>        0.04722
@<TRIPOS>BOND
     1    1    2 1
     2    1    4 1
     3    2   10 1
     4    3   10 1
     5    3   11 1
     6    4    5 1
     7    4    6 1
     8    4    7 1
     9    5    8 1
    10    5    9 1
    11    5   11 1
    12    1   12 1
    13    1   13 1
    14    2   14 1
    15    2   15 1
    16    3   16 1
    17    3   17 1
    18    6   18 1
    19    6   19 1
    20    6   20 1
    21    7   21 1
    22    7   22 1
    23    7   23 1
    24    8   24 1
    25    8   25 1
    26    8   26 1
    27    9   27 1
    28    9   28 1
    29    9   29 1
@<TRIPOS>SUBSTRUCTURE
     1 <0>         1 GROUP 0 A     ****
