@<TRIPOS>MOLECULE
AlkEthOH_r226
   32    32     1     0     0
SMALL
USER_CHARGES

@<TRIPOS>ATOM
      1 C1          1.0451    1.0289   -1.7629 CT        1 <0>       -0.06535
      2 C2          0.3006    2.2567   -1.2287 CT        1 <0>       -0.09854
      3 C3          1.6341    0.1238   -0.6744 CT        1 <0>       -0.10285
      4 C4         -0.6362   -1.0284   -0.0507 CT        1 <0>       -0.08383
      5 C5         -0.9563    1.9221   -0.4364 CT        1 <0>        0.13231
      6 C6          0.8664   -1.1862   -0.3877 CT        1 <0>        0.16333
      7 C7         -1.0665   -0.0134    1.0434 CT        1 <0>        0.16361
      8 C8          0.9983   -2.1515   -1.5805 CT        1 <0>       -0.12685
      9 C9         -2.6032   -0.0053    1.1645 CT        1 <0>       -0.10222
     10 C10        -0.5024   -0.3912    2.4214 CT        1 <0>       -0.10222
     11 O1         -0.5920    1.3134    0.7952 OS        1 <0>       -0.42009
     12 O2          1.5121   -1.8689    0.6968 OH        1 <0>       -0.60219
     13 H1          0.3961    0.4718   -2.4462 HC        1 <0>        0.03685
     14 H2          1.8768    1.4022   -2.3746 HC        1 <0>        0.03685
     15 H3          0.9854    2.8409   -0.6016 HC        1 <0>        0.04802
     16 H4          0.0209    2.8891   -2.0794 HC        1 <0>        0.04802
     17 H5          2.6527   -0.1533   -0.9839 HC        1 <0>        0.05365
     18 H6          1.7947    0.6836    0.2556 HC        1 <0>        0.05365
     19 H7         -1.1615   -0.7829   -0.9822 HC        1 <0>        0.05244
     20 H8         -1.0229   -2.0130    0.2504 HC        1 <0>        0.05244
     21 H9         -1.4748    2.8545   -0.1884 H1        1 <0>        0.03692
     22 H10        -1.6452    1.3226   -1.0379 H1        1 <0>        0.03692
     23 H11         0.4544   -3.0646   -1.3631 HC        1 <0>        0.04146
     24 H12         2.0466   -2.3796   -1.7413 HC        1 <0>        0.04146
     25 H13         0.5857   -1.6822   -2.4673 HC        1 <0>        0.04146
     26 H14        -2.8962    0.7050    1.9295 HC        1 <0>        0.04480
     27 H15        -2.9439   -0.9983    1.4359 HC        1 <0>        0.04480
     28 H16        -3.0337    0.2828    0.2118 HC        1 <0>        0.04480
     29 H17        -0.8252    0.3409    3.1552 HC        1 <0>        0.04480
     30 H18         0.5820   -0.4056    2.3744 HC        1 <0>        0.04480
     31 H19        -0.8680   -1.3740    2.7025 HC        1 <0>        0.04480
     32 H20         2.4158   -2.0444    0.4007 HO        1 <0>        0.39595
@<TRIPOS>BOND
     1    1    2 1
     2    1    3 1
     3    2    5 1
     4    3    6 1
     5    4    6 1
     6    4    7 1
     7    5   11 1
     8    6    8 1
     9    6   12 1
    10    7    9 1
    11    7   10 1
    12    7   11 1
    13    1   13 1
    14    1   14 1
    15    2   15 1
    16    2   16 1
    17    3   17 1
    18    3   18 1
    19    4   19 1
    20    4   20 1
    21    5   21 1
    22    5   22 1
    23    8   23 1
    24    8   24 1
    25    8   25 1
    26    9   26 1
    27    9   27 1
    28    9   28 1
    29   10   29 1
    30   10   30 1
    31   10   31 1
    32   12   32 1
@<TRIPOS>SUBSTRUCTURE
     1 <0>         1 GROUP 0 A     ****
