@<TRIPOS>MOLECULE
AlkEthOH_r236
   29    29     1     0     0
SMALL
USER_CHARGES

@<TRIPOS>ATOM
      1 C1          1.8703    0.5048   -1.1984 CT        1 <0>       -0.10644
      2 C2          0.5772    0.5366   -2.0108 CT        1 <0>       -0.10494
      3 C3         -0.7191   -1.0041   -0.3836 CT        1 <0>       -0.06370
      4 C4          1.8972    1.4357    0.0116 CT        1 <0>        0.13187
      5 C5          0.7821   -0.0612    1.5094 CT        1 <0>        0.13335
      6 C6         -0.7350    0.2591   -1.2645 CT        1 <0>        0.14541
      7 C7         -0.5296   -0.7935    1.1486 CT        1 <0>       -0.06804
      8 C8         -1.7338   -0.0194    1.7256 CT        1 <0>       -0.08685
      9 C9         -0.4970   -2.1838    1.8188 CT        1 <0>       -0.08685
     10 O1          0.8236    1.2345    0.9219 OS        1 <0>       -0.41920
     11 O2         -1.7360    0.0913   -2.2786 OH        1 <0>       -0.61174
     12 H1          2.0677   -0.5266   -0.8883 HC        1 <0>        0.04718
     13 H2          2.7023    0.7767   -1.8599 HC        1 <0>        0.04718
     14 H3          0.4898    1.5135   -2.5053 HC        1 <0>        0.04277
     15 H4          0.6767   -0.1828   -2.8353 HC        1 <0>        0.04277
     16 H5         -1.6634   -1.5482   -0.5291 HC        1 <0>        0.05397
     17 H6          0.0523   -1.6926   -0.7530 HC        1 <0>        0.05397
     18 H7          2.8469    1.3327    0.5494 H1        1 <0>        0.04465
     19 H8          1.8353    2.4746   -0.3300 H1        1 <0>        0.04465
     20 H9          0.8326    0.0864    2.5953 H1        1 <0>        0.04051
     21 H10         1.6595   -0.6637    1.2462 H1        1 <0>        0.04051
     22 H11        -1.0314    1.1485   -0.7034 H1        1 <0>        0.05836
     23 H12        -1.5873    0.1188    2.7901 HC        1 <0>        0.03755
     24 H13        -2.6377   -0.5898    1.5484 HC        1 <0>        0.03755
     25 H14        -1.8025    0.9437    1.2342 HC        1 <0>        0.03755
     26 H15        -0.3656   -2.0574    2.8866 HC        1 <0>        0.03755
     27 H16         0.3290   -2.7530    1.4098 HC        1 <0>        0.03755
     28 H17        -1.4318   -2.6934    1.6192 HC        1 <0>        0.03755
     29 H18        -1.7558    0.9217   -2.7737 HO        1 <0>        0.39531
@<TRIPOS>BOND
     1    1    2 1
     2    1    4 1
     3    2    6 1
     4    3    6 1
     5    3    7 1
     6    4   10 1
     7    5    7 1
     8    5   10 1
     9    6   11 1
    10    7    8 1
    11    7    9 1
    12    1   12 1
    13    1   13 1
    14    2   14 1
    15    2   15 1
    16    3   16 1
    17    3   17 1
    18    4   18 1
    19    4   19 1
    20    5   20 1
    21    5   21 1
    22    6   22 1
    23    8   23 1
    24    8   24 1
    25    8   25 1
    26    9   26 1
    27    9   27 1
    28    9   28 1
    29   11   29 1
@<TRIPOS>SUBSTRUCTURE
     1 <0>         1 GROUP 0 A     ****
