@<TRIPOS>MOLECULE
AlkEthOH_r216
   21    21     1     0     0
SMALL
USER_CHARGES

@<TRIPOS>ATOM
      1 C1          0.9417    0.0172    1.7271 CT        1 <0>        0.09709
      2 C2         -0.5450   -0.2806    1.7517 CT        1 <0>        0.09530
      3 C3          0.9121    0.1206   -0.6357 CT        1 <0>        0.30513
      4 C4         -0.6059   -0.1623   -0.6452 CT        1 <0>        0.14019
      5 C5         -0.8883   -1.6569   -0.8749 CT        1 <0>       -0.10158
      6 C6         -1.3174    0.6418   -1.7418 CT        1 <0>       -0.10158
      7 O1          1.5210   -0.4712    0.5173 OS        1 <0>       -0.44810
      8 O2         -1.1838    0.2684    0.6000 OS        1 <0>       -0.39882
      9 O3          1.1657    1.5231   -0.6984 OH        1 <0>       -0.61247
     10 H1          1.1307    1.0936    1.8071 H1        1 <0>        0.06088
     11 H2          1.4423   -0.4735    2.5673 H1        1 <0>        0.06088
     12 H3         -0.7361   -1.3574    1.7961 H1        1 <0>        0.05633
     13 H4         -1.0046    0.1683    2.6377 H1        1 <0>        0.05633
     14 H5          1.3734   -0.3321   -1.5212 H2        1 <0>        0.07230
     15 H6         -1.9607   -1.8226   -0.8763 HC        1 <0>        0.05051
     16 H7         -0.4306   -2.2344   -0.0785 HC        1 <0>        0.05051
     17 H8         -0.4711   -1.9574   -1.8305 HC        1 <0>        0.05051
     18 H9         -2.3806    0.4199   -1.7208 HC        1 <0>        0.05051
     19 H10        -0.9097    0.3705   -2.7114 HC        1 <0>        0.05051
     20 H11        -1.1651    1.7033   -1.5684 HC        1 <0>        0.05051
     21 H12         2.1293    1.6287   -0.6889 HO        1 <0>        0.41506
@<TRIPOS>BOND
     1    1    2 1
     2    1    7 1
     3    2    8 1
     4    3    4 1
     5    3    7 1
     6    3    9 1
     7    4    5 1
     8    4    6 1
     9    4    8 1
    10    1   10 1
    11    1   11 1
    12    2   12 1
    13    2   13 1
    14    3   14 1
    15    5   15 1
    16    5   16 1
    17    5   17 1
    18    6   18 1
    19    6   19 1
    20    6   20 1
    21    9   21 1
@<TRIPOS>SUBSTRUCTURE
     1 <0>         1 GROUP 0 A     ****
