@<TRIPOS>MOLECULE
AlkEthOH_r1097
   24    24     1     0     0
SMALL
USER_CHARGES

@<TRIPOS>ATOM
      1 C1          1.1927    1.2495    1.2211 CT        1 <0>        0.09805
      2 C2          0.0961    1.9742    0.4548 CT        1 <0>        0.10396
      3 C3          1.7086   -0.8521    0.1743 CT        1 <0>        0.11254
      4 C4          0.5434   -1.0490   -0.7927 CT        1 <0>        0.10907
      5 C5         -1.4062    0.2851   -0.3448 CT        1 <0>        0.33414
      6 C6          0.5569   -2.4670   -1.3559 CT        1 <0>       -0.10259
      7 C7         -2.8847   -0.0626   -0.2156 CT        1 <0>       -0.08767
      8 O1          2.0383    0.5251    0.3336 OS        1 <0>       -0.42726
      9 O2         -1.1557    1.3148    0.6086 OS        1 <0>       -0.44299
     10 O3         -0.6894   -0.9181   -0.0834 OS        1 <0>       -0.44099
     11 H1          1.8406    2.0017    1.6840 H1        1 <0>        0.06244
     12 H2          0.8033    0.6113    2.0223 H1        1 <0>        0.06244
     13 H3         -0.0422    2.9628    0.9059 H1        1 <0>        0.05578
     14 H4          0.3389    2.1242   -0.6030 H1        1 <0>        0.05578
     15 H5          1.5185   -1.3111    1.1518 H1        1 <0>        0.05962
     16 H6          2.6091   -1.3195   -0.2388 H1        1 <0>        0.05962
     17 H7          0.6078   -0.3368   -1.6240 H1        1 <0>        0.05012
     18 H8         -1.2390    0.6531   -1.3651 H2        1 <0>        0.03773
     19 H9          0.4935   -3.1893   -0.5430 HC        1 <0>        0.04526
     20 H10         1.4787   -2.6366   -1.9109 HC        1 <0>        0.04526
     21 H11        -0.2917   -2.6085   -2.0241 HC        1 <0>        0.04526
     22 H12        -3.0933   -0.4335    0.7876 HC        1 <0>        0.05481
     23 H13        -3.1505   -0.8318   -0.9402 HC        1 <0>        0.05481
     24 H14        -3.4925    0.8231   -0.3996 HC        1 <0>        0.05481
@<TRIPOS>BOND
     1    1    2 1
     2    1    8 1
     3    2    9 1
     4    3    4 1
     5    3    8 1
     6    4    6 1
     7    4   10 1
     8    5    7 1
     9    5    9 1
    10    5   10 1
    11    1   11 1
    12    1   12 1
    13    2   13 1
    14    2   14 1
    15    3   15 1
    16    3   16 1
    17    4   17 1
    18    5   18 1
    19    6   19 1
    20    6   20 1
    21    6   21 1
    22    7   22 1
    23    7   23 1
    24    7   24 1
@<TRIPOS>SUBSTRUCTURE
     1 <0>         1 GROUP 0 A     ****
