@<TRIPOS>MOLECULE
AlkEthOH_r424
   25    25     1     0     0
SMALL
USER_CHARGES

@<TRIPOS>ATOM
      1 C1          0.7967    1.1045    1.6200 CT        1 <0>       -0.05715
      2 C2         -0.6595    0.6844    1.8403 CT        1 <0>       -0.11021
      3 C3          1.4121    0.8263    0.2422 CT        1 <0>       -0.12730
      4 C4         -1.6627    1.2214    0.8188 CT        1 <0>        0.14573
      5 C5         -1.0964   -0.2298   -1.0260 CT        1 <0>        0.53563
      6 C6          1.2142   -0.5875   -0.3428 CT        1 <0>        0.37287
      7 C7          2.0088   -1.6120    0.4744 CT        1 <0>       -0.11494
      8 O1         -1.2565    1.1048   -0.5393 OS        1 <0>       -0.44373
      9 O2         -0.1457   -1.0319   -0.3238 OS        1 <0>       -0.48130
     10 O3         -2.3532   -0.9076   -1.0903 OH        1 <0>       -0.62128
     11 O4          1.7421   -0.5724   -1.6735 OH        1 <0>       -0.63176
     12 H1          0.8833    2.1807    1.8170 HC        1 <0>        0.03686
     13 H2          1.4101    0.6122    2.3849 HC        1 <0>        0.03686
     14 H3         -0.7191   -0.4086    1.8810 HC        1 <0>        0.05252
     15 H4         -0.9728    1.0187    2.8376 HC        1 <0>        0.05252
     16 H5          1.0459    1.5747   -0.4715 HC        1 <0>        0.05994
     17 H6          2.4891    1.0398    0.2962 HC        1 <0>        0.05994
     18 H7         -2.6394    0.7434    0.9557 H1        1 <0>        0.05511
     19 H8         -1.8095    2.2913    1.0045 H1        1 <0>        0.05511
     20 H9         -0.7487   -0.1323   -2.0606 H3        1 <0>        0.11418
     21 H10         1.8631   -2.6041    0.0548 HC        1 <0>        0.05352
     22 H11         1.6635   -1.6020    1.5050 HC        1 <0>        0.05352
     23 H12         3.0657   -1.3596    0.4454 HC        1 <0>        0.05352
     24 H13        -2.1658   -1.7968   -1.4255 HO        1 <0>        0.43582
     25 H14         2.6781   -0.3405   -1.5898 HO        1 <0>        0.41402
@<TRIPOS>BOND
     1    1    2 1
     2    1    3 1
     3    2    4 1
     4    3    6 1
     5    4    8 1
     6    5    8 1
     7    5    9 1
     8    5   10 1
     9    6    7 1
    10    6    9 1
    11    6   11 1
    12    1   12 1
    13    1   13 1
    14    2   14 1
    15    2   15 1
    16    3   16 1
    17    3   17 1
    18    4   18 1
    19    4   19 1
    20    5   20 1
    21    7   21 1
    22    7   22 1
    23    7   23 1
    24   10   24 1
    25   11   25 1
@<TRIPOS>SUBSTRUCTURE
     1 <0>         1 GROUP 0 A     ****
