@<TRIPOS>MOLECULE
AlkEthOH_r253
   30    30     1     0     0
SMALL
USER_CHARGES

@<TRIPOS>ATOM
      1 C1          0.6488    1.0033   -0.1205 CT        1 <0>       -0.08322
      2 C2         -2.1974   -0.9825   -0.6739 CT        1 <0>        0.10818
      3 C3         -1.0787   -0.8400   -1.6971 CT        1 <0>        0.09861
      4 C4         -1.0894   -0.2702    1.3199 CT        1 <0>        0.10267
      5 C5          0.0182    0.7907    1.2786 CT        1 <0>        0.14014
      6 C6          1.1547   -0.2388   -0.9074 CT        1 <0>        0.16048
      7 C7         -0.5345    2.1369    1.7772 CT        1 <0>       -0.12440
      8 C8          1.7106    0.2090   -2.2727 CT        1 <0>       -0.10191
      9 C9          2.2904   -0.9505   -0.1562 CT        1 <0>       -0.10191
     10 O1         -2.1016    0.0009    0.3549 OS        1 <0>       -0.41765
     11 O2          0.1541   -1.2444   -1.1120 OS        1 <0>       -0.42740
     12 O3          1.0248    0.3856    2.2094 OH        1 <0>       -0.59919
     13 H1         -0.0799    1.5406   -0.7401 HC        1 <0>        0.05869
     14 H2          1.5022    1.6874   -0.0055 HC        1 <0>        0.05869
     15 H3         -3.1577   -0.8218   -1.1745 H1        1 <0>        0.05546
     16 H4         -2.2177   -1.9845   -0.2300 H1        1 <0>        0.05546
     17 H5         -1.2728   -1.5223   -2.5311 H1        1 <0>        0.04957
     18 H6         -1.0451    0.1754   -2.1006 H1        1 <0>        0.04957
     19 H7         -0.6784   -1.2835    1.2309 H1        1 <0>        0.05551
     20 H8         -1.5719   -0.2552    2.3054 H1        1 <0>        0.05551
     21 H9         -0.9793    2.0004    2.7575 HC        1 <0>        0.04578
     22 H10        -1.2864    2.4950    1.0816 HC        1 <0>        0.04578
     23 H11         0.2762    2.8554    1.8406 HC        1 <0>        0.04578
     24 H12         2.0616   -0.6610   -2.8165 HC        1 <0>        0.04551
     25 H13         2.5322    0.8983   -2.1133 HC        1 <0>        0.04551
     26 H14         0.9231    0.6996   -2.8338 HC        1 <0>        0.04551
     27 H15         2.6190   -1.8105   -0.7317 HC        1 <0>        0.04551
     28 H16         1.9301   -1.2782    0.8141 HC        1 <0>        0.04551
     29 H17         3.1201   -0.2630   -0.0233 HC        1 <0>        0.04551
     30 H18         0.5770    0.2683    3.0601 HO        1 <0>        0.39674
@<TRIPOS>BOND
     1    1    5 1
     2    1    6 1
     3    2    3 1
     4    2   10 1
     5    3   11 1
     6    4    5 1
     7    4   10 1
     8    5    7 1
     9    5   12 1
    10    6    8 1
    11    6    9 1
    12    6   11 1
    13    1   13 1
    14    1   14 1
    15    2   15 1
    16    2   16 1
    17    3   17 1
    18    3   18 1
    19    4   19 1
    20    4   20 1
    21    7   21 1
    22    7   22 1
    23    7   23 1
    24    8   24 1
    25    8   25 1
    26    8   26 1
    27    9   27 1
    28    9   28 1
    29    9   29 1
    30   12   30 1
@<TRIPOS>SUBSTRUCTURE
     1 <0>         1 GROUP 0 A     ****
