@<TRIPOS>MOLECULE
AlkEthOH_r103
   21    21     1     0     0
SMALL
USER_CHARGES

@<TRIPOS>ATOM
      1 C1         -1.8997    0.5008    0.1915 CT        1 <0>       -0.09708
      2 C2         -1.4430   -0.2370   -1.0738 CT        1 <0>       -0.09703
      3 C3         -0.8880    1.5102    0.7339 CT        1 <0>        0.14024
      4 C4         -0.7842   -1.5927   -0.8138 CT        1 <0>        0.14024
      5 C5          1.4470    1.0503    0.6871 CT        1 <0>        0.32662
      6 C6          1.5125   -0.9809   -0.5360 CT        1 <0>        0.32662
      7 O1          0.2066    0.8533    1.3635 OS        1 <0>       -0.42873
      8 O2          0.3433   -1.5481    0.0510 OS        1 <0>       -0.42873
      9 O3          1.5054    0.4442   -0.6031 OS        1 <0>       -0.47823
     10 H1         -2.8099    1.0592   -0.0609 HC        1 <0>        0.04895
     11 H2         -2.1694   -0.2214    0.9708 HC        1 <0>        0.04895
     12 H3         -2.3282   -0.4268   -1.6945 HC        1 <0>        0.04895
     13 H4         -0.7882    0.4052   -1.6717 HC        1 <0>        0.04895
     14 H5         -0.5641    2.2059   -0.0499 H1        1 <0>        0.04023
     15 H6         -1.3786    2.1088    1.5096 H1        1 <0>        0.04023
     16 H7         -1.5167   -2.2544   -0.3380 H1        1 <0>        0.04023
     17 H8         -0.5067   -2.0687   -1.7617 H1        1 <0>        0.04023
     18 H9          1.6354    2.1239    0.5736 H2        1 <0>        0.05984
     19 H10         2.2490    0.6511    1.3182 H2        1 <0>        0.05984
     20 H11         2.3762   -1.3039    0.0556 H2        1 <0>        0.05984
     21 H12         1.6560   -1.3734   -1.5489 H2        1 <0>        0.05984
@<TRIPOS>BOND
     1    1    2 1
     2    1    3 1
     3    2    4 1
     4    3    7 1
     5    4    8 1
     6    5    7 1
     7    5    9 1
     8    6    8 1
     9    6    9 1
    10    1   10 1
    11    1   11 1
    12    2   12 1
    13    2   13 1
    14    3   14 1
    15    3   15 1
    16    4   16 1
    17    4   17 1
    18    5   18 1
    19    5   19 1
    20    6   20 1
    21    6   21 1
@<TRIPOS>SUBSTRUCTURE
     1 <0>         1 GROUP 0 A     ****
