@<TRIPOS>MOLECULE
AlkEthOH_r778
   31    31     1     0     0
SMALL
USER_CHARGES

@<TRIPOS>ATOM
      1 C1          1.4847   -1.1532    0.9106 CT        1 <0>       -0.06965
      2 C2          0.6075   -2.3348    0.4820 CT        1 <0>       -0.09855
      3 C3          0.7019    0.0291    1.4988 CT        1 <0>       -0.06927
      4 C4          0.0065    0.9322   -0.8548 CT        1 <0>       -0.09701
      5 C5         -0.3300   -2.0329   -0.6806 CT        1 <0>        0.13092
      6 C6         -1.3229    0.1627   -0.9506 CT        1 <0>        0.14446
      7 C7          0.5200    1.2641    0.5741 CT        1 <0>       -0.04380
      8 C8         -1.7732   -0.0100   -2.4023 CT        1 <0>       -0.12565
      9 C9          1.8752    1.9954    0.4269 CT        1 <0>       -0.08974
     10 C10        -0.4539    2.2398    1.2695 CT        1 <0>       -0.08974
     11 O1         -1.3158   -1.0923   -0.2737 OS        1 <0>       -0.41959
     12 H1          2.1598   -1.5271    1.6917 HC        1 <0>        0.03620
     13 H2          2.1294   -0.8461    0.0813 HC        1 <0>        0.03620
     14 H3          1.2621   -3.1671    0.1972 HC        1 <0>        0.04566
     15 H4          0.0202   -2.6691    1.3464 HC        1 <0>        0.04566
     16 H5         -0.2701   -0.3150    1.8736 HC        1 <0>        0.04782
     17 H6          1.2392    0.3632    2.3981 HC        1 <0>        0.04782
     18 H7          0.7886    0.3834   -1.3927 HC        1 <0>        0.04493
     19 H8         -0.1106    1.8753   -1.4075 HC        1 <0>        0.04493
     20 H9          0.2347   -1.7195   -1.5638 H1        1 <0>        0.03818
     21 H10        -0.8608   -2.9522   -0.9513 H1        1 <0>        0.03818
     22 H11        -2.1006    0.7556   -0.4570 H1        1 <0>        0.07330
     23 H12        -1.0359   -0.5951   -2.9478 HC        1 <0>        0.04128
     24 H13        -1.8761    0.9655   -2.8727 HC        1 <0>        0.04128
     25 H14        -2.7314   -0.5246   -2.4301 HC        1 <0>        0.04128
     26 H15         1.7407    2.8539   -0.2182 HC        1 <0>        0.03415
     27 H16         2.5949    1.3134   -0.0070 HC        1 <0>        0.03415
     28 H17         2.2083    2.3143    1.4060 HC        1 <0>        0.03415
     29 H18        -0.5930    3.1087    0.6379 HC        1 <0>        0.03415
     30 H19        -0.0330    2.5386    2.2218 HC        1 <0>        0.03415
     31 H20        -1.4023    1.7400    1.4249 HC        1 <0>        0.03415
@<TRIPOS>BOND
     1    1    2 1
     2    1    3 1
     3    2    5 1
     4    3    7 1
     5    4    6 1
     6    4    7 1
     7    5   11 1
     8    6    8 1
     9    6   11 1
    10    7    9 1
    11    7   10 1
    12    1   12 1
    13    1   13 1
    14    2   14 1
    15    2   15 1
    16    3   16 1
    17    3   17 1
    18    4   18 1
    19    4   19 1
    20    5   20 1
    21    5   21 1
    22    6   22 1
    23    8   23 1
    24    8   24 1
    25    8   25 1
    26    9   26 1
    27    9   27 1
    28    9   28 1
    29   10   29 1
    30   10   30 1
    31   10   31 1
@<TRIPOS>SUBSTRUCTURE
     1 <0>         1 GROUP 0 A     ****
