@<TRIPOS>MOLECULE
AlkEthOH_r66
   24    24     1     0     0
SMALL
USER_CHARGES

@<TRIPOS>ATOM
      1 C1          1.6653   -0.1905   -1.2773 CT        1 <0>       -0.07240
      2 C2          1.7934    1.2030   -0.6565 CT        1 <0>       -0.07240
      3 C3          1.7050   -1.3536   -0.2800 CT        1 <0>       -0.10710
      4 C4          0.7368    1.6194    0.3677 CT        1 <0>       -0.10710
      5 C5          0.3331   -1.9417    0.0466 CT        1 <0>        0.14979
      6 C6         -0.6836    1.7151   -0.1858 CT        1 <0>        0.14979
      7 C7         -1.5348   -0.4806    0.3477 CT        1 <0>        0.52803
      8 O1         -0.3903   -1.0997    0.9375 OS        1 <0>       -0.47309
      9 O2         -1.2265    0.4877   -0.6603 OS        1 <0>       -0.47309
     10 O3         -2.3984    0.0409    1.3603 OH        1 <0>       -0.62092
     11 H1          0.7856   -0.2524   -1.9259 HC        1 <0>        0.04098
     12 H2          2.5258   -0.3069   -1.9503 HC        1 <0>        0.04098
     13 H3          2.7770    1.2758   -0.1745 HC        1 <0>        0.04098
     14 H4          1.8035    1.9400   -1.4698 HC        1 <0>        0.04098
     15 H5          2.3004   -2.1571   -0.7318 HC        1 <0>        0.05181
     16 H6          2.2197   -1.0514    0.6393 HC        1 <0>        0.05181
     17 H7          0.7795    0.9577    1.2366 HC        1 <0>        0.05181
     18 H8          1.0136    2.6138    0.7415 HC        1 <0>        0.05181
     19 H9         -0.2299   -2.1710   -0.8661 H1        1 <0>        0.04863
     20 H10         0.4831   -2.8900    0.5746 H1        1 <0>        0.04863
     21 H11        -1.3524    2.1510    0.5648 H1        1 <0>        0.04863
     22 H12        -0.6860    2.4071   -1.0356 H1        1 <0>        0.04863
     23 H13        -2.1112   -1.2652   -0.1569 H3        1 <0>        0.09443
     24 H14        -2.6633   -0.7136    1.9069 HO        1 <0>        0.43838
@<TRIPOS>BOND
     1    1    2 1
     2    1    3 1
     3    2    4 1
     4    3    5 1
     5    4    6 1
     6    5    8 1
     7    6    9 1
     8    7    8 1
     9    7    9 1
    10    7   10 1
    11    1   11 1
    12    1   12 1
    13    2   13 1
    14    2   14 1
    15    3   15 1
    16    3   16 1
    17    4   17 1
    18    4   18 1
    19    5   19 1
    20    5   20 1
    21    6   21 1
    22    6   22 1
    23    7   23 1
    24   10   24 1
@<TRIPOS>SUBSTRUCTURE
     1 <0>         1 GROUP 0 A     ****
