@<TRIPOS>MOLECULE
AlkEthOH_r228
   27    27     1     0     0
SMALL
USER_CHARGES

@<TRIPOS>ATOM
      1 C1          1.3671    0.3319   -1.7224 CT        1 <0>       -0.07049
      2 C2          1.0774    1.7626   -1.2538 CT        1 <0>       -0.10334
      3 C3          1.6503   -0.6596   -0.5860 CT        1 <0>       -0.07082
      4 C4         -0.8792   -0.9368    0.0036 CT        1 <0>       -0.16321
      5 C5         -0.1895    1.9217   -0.4215 CT        1 <0>        0.13823
      6 C6          0.4856   -1.5935   -0.2349 CT        1 <0>        0.15381
      7 C7         -0.9444    0.1753    1.0679 CT        1 <0>        0.35581
      8 C8         -0.5786   -0.3721    2.4492 CT        1 <0>       -0.11570
      9 O1         -0.0386    1.2530    0.8245 OS        1 <0>       -0.40739
     10 O2          0.3423   -2.5287   -1.3107 OH        1 <0>       -0.60012
     11 O3         -2.2923    0.6461    1.1840 OH        1 <0>       -0.62427
     12 H1          0.5605   -0.0238   -2.3731 HC        1 <0>        0.04476
     13 H2          2.2635    0.3817   -2.3545 HC        1 <0>        0.04476
     14 H3          1.9373    2.1197   -0.6732 HC        1 <0>        0.04765
     15 H4          0.9981    2.4059   -2.1381 HC        1 <0>        0.04765
     16 H5          2.4873   -1.2931   -0.9106 HC        1 <0>        0.05823
     17 H6          2.0033   -0.1344    0.3084 HC        1 <0>        0.05823
     18 H7         -1.2694   -0.5675   -0.9536 HC        1 <0>        0.05641
     19 H8         -1.6017   -1.7225    0.2698 HC        1 <0>        0.05641
     20 H9         -0.3253    2.9848   -0.1941 H1        1 <0>        0.05131
     21 H10        -1.0767    1.6040   -0.9789 H1        1 <0>        0.05131
     22 H11         0.7721   -2.1803    0.6452 H1        1 <0>        0.02715
     23 H12        -0.6309    0.4277    3.1838 HC        1 <0>        0.05344
     24 H13         0.4311   -0.7745    2.4261 HC        1 <0>        0.05344
     25 H14        -1.2747   -1.1605    2.7248 HC        1 <0>        0.05344
     26 H15        -0.3957   -3.1059   -1.0686 HO        1 <0>        0.39537
     27 H16        -2.8220   -0.1197    1.4466 HO        1 <0>        0.40793
@<TRIPOS>BOND
     1    1    2 1
     2    1    3 1
     3    2    5 1
     4    3    6 1
     5    4    6 1
     6    4    7 1
     7    5    9 1
     8    6   10 1
     9    7    8 1
    10    7    9 1
    11    7   11 1
    12    1   12 1
    13    1   13 1
    14    2   14 1
    15    2   15 1
    16    3   16 1
    17    3   17 1
    18    4   18 1
    19    4   19 1
    20    5   20 1
    21    5   21 1
    22    6   22 1
    23    8   23 1
    24    8   24 1
    25    8   25 1
    26   10   26 1
    27   11   27 1
@<TRIPOS>SUBSTRUCTURE
     1 <0>         1 GROUP 0 A     ****
