@<TRIPOS>MOLECULE
AlkEthOH_r432
   37    37     1     0     0
SMALL
USER_CHARGES

@<TRIPOS>ATOM
      1 C1         -0.8351    1.8208   -1.4332 CT        1 <0>       -0.06276
      2 C2         -1.9844    0.8301   -1.2539 CT        1 <0>       -0.10945
      3 C3          0.5608    1.4154   -0.9367 CT        1 <0>       -0.07598
      4 C4          0.1615    0.0385    1.3109 CT        1 <0>       -0.05264
      5 C5         -1.7639   -0.5063   -1.9582 CT        1 <0>        0.13228
      6 C6         -0.8614   -1.8050   -0.1771 CT        1 <0>        0.13339
      7 C7          0.8153    1.2617    0.5867 CT        1 <0>       -0.03336
      8 C8          0.2578   -1.4495    0.8326 CT        1 <0>       -0.05661
      9 C9          2.3511    1.2447    0.8000 CT        1 <0>       -0.09217
     10 C10         0.3039    2.5318    1.3188 CT        1 <0>       -0.09217
     11 C11         1.6296   -1.8429    0.2718 CT        1 <0>       -0.08729
     12 C12         0.0022   -2.3371    2.0812 CT        1 <0>       -0.08729
     13 O1         -0.6373   -1.2022   -1.4429 OS        1 <0>       -0.41645
     14 H1         -0.7474    2.0342   -2.5074 HC        1 <0>        0.03522
     15 H2         -1.1237    2.7752   -0.9776 HC        1 <0>        0.03522
     16 H3         -2.1829    0.6846   -0.1902 HC        1 <0>        0.04412
     17 H4         -2.8919    1.2856   -1.6697 HC        1 <0>        0.04412
     18 H5          0.9160    0.5348   -1.4768 HC        1 <0>        0.05009
     19 H6          1.2267    2.2172   -1.2919 HC        1 <0>        0.05009
     20 H7          0.5687    0.0622    2.3342 HC        1 <0>        0.03322
     21 H8         -0.9032    0.2573    1.4648 HC        1 <0>        0.03322
     22 H9         -2.6578   -1.1376   -1.8906 H1        1 <0>        0.04283
     23 H10        -1.5771   -0.3300   -3.0231 H1        1 <0>        0.04283
     24 H11        -0.8763   -2.8880   -0.3510 H1        1 <0>        0.03537
     25 H12        -1.8452   -1.5475    0.2358 H1        1 <0>        0.03537
     26 H13         2.5523    1.1382    1.8568 HC        1 <0>        0.03310
     27 H14         2.7615    2.1749    0.4325 HC        1 <0>        0.03310
     28 H15         2.7668    0.4097    0.2534 HC        1 <0>        0.03310
     29 H16         0.4854    2.4150    2.3774 HC        1 <0>        0.03310
     30 H17        -0.7545    2.6358    1.1280 HC        1 <0>        0.03310
     31 H18         0.8409    3.3882    0.9372 HC        1 <0>        0.03310
     32 H19         1.6109   -2.8851   -0.0354 HC        1 <0>        0.03670
     33 H20         2.3879   -1.7056    1.0380 HC        1 <0>        0.03670
     34 H21         1.8643   -1.2175   -0.5854 HC        1 <0>        0.03670
     35 H22         0.0620   -3.3738    1.7835 HC        1 <0>        0.03670
     36 H23        -0.9817   -2.1123    2.4666 HC        1 <0>        0.03670
     37 H24         0.7567   -2.1137    2.8214 HC        1 <0>        0.03670
@<TRIPOS>BOND
     1    1    2 1
     2    1    3 1
     3    2    5 1
     4    3    7 1
     5    4    7 1
     6    4    8 1
     7    5   13 1
     8    6    8 1
     9    6   13 1
    10    7    9 1
    11    7   10 1
    12    8   11 1
    13    8   12 1
    14    1   14 1
    15    1   15 1
    16    2   16 1
    17    2   17 1
    18    3   18 1
    19    3   19 1
    20    4   20 1
    21    4   21 1
    22    5   22 1
    23    5   23 1
    24    6   24 1
    25    6   25 1
    26    9   26 1
    27    9   27 1
    28    9   28 1
    29   10   29 1
    30   10   30 1
    31   10   31 1
    32   11   32 1
    33   11   33 1
    34   11   34 1
    35   12   35 1
    36   12   36 1
    37   12   37 1
@<TRIPOS>SUBSTRUCTURE
     1 <0>         1 GROUP 0 A     ****
