@<TRIPOS>MOLECULE
AlkEthOH_r997
   20    20     1     0     0
SMALL
USER_CHARGES

@<TRIPOS>ATOM
      1 C1          0.7139   -0.3292    0.7622 CT        1 <0>       -0.14605
      2 C2          1.6920   -1.3423    0.1803 CT        1 <0>        0.13088
      3 C3          1.4795    0.8574    1.3510 CT        1 <0>        0.14270
      4 C4          3.3405   -0.5572    1.6649 CT        1 <0>        0.32758
      5 C5          0.5496    1.8115    2.0854 CT        1 <0>       -0.09064
      6 C6          4.3307   -1.0243    2.7180 CT        1 <0>       -0.08491
      7 O1          2.6561   -1.7093    1.1662 OS        1 <0>       -0.43738
      8 O2          2.4541    0.3793    2.2835 OS        1 <0>       -0.43553
      9 H1          0.0002   -0.0000   -0.0001 HC        1 <0>        0.06069
     10 H2          0.1515   -0.8230    1.5652 HC        1 <0>        0.06069
     11 H3          1.1617   -2.2480   -0.1296 H1        1 <0>        0.05005
     12 H4          2.2078   -0.9389   -0.6988 H1        1 <0>        0.05005
     13 H5          1.9966    1.4086    0.5554 H1        1 <0>        0.03435
     14 H6          3.8896   -0.0684    0.8498 H2        1 <0>        0.03146
     15 H7          0.0240    1.2838    2.8824 HC        1 <0>        0.04650
     16 H8         -0.1851    2.2258    1.3938 HC        1 <0>        0.04650
     17 H9          1.1220    2.6304    2.5233 HC        1 <0>        0.04650
     18 H10         3.8047   -1.5142    3.5395 HC        1 <0>        0.05552
     19 H11         4.8871   -0.1738    3.1162 HC        1 <0>        0.05552
     20 H12         5.0380   -1.7328    2.2829 HC        1 <0>        0.05552
@<TRIPOS>BOND
     1    1    2 1
     2    1    3 1
     3    2    7 1
     4    3    5 1
     5    3    8 1
     6    4    6 1
     7    4    7 1
     8    4    8 1
     9    1    9 1
    10    1   10 1
    11    2   11 1
    12    2   12 1
    13    3   13 1
    14    4   14 1
    15    5   15 1
    16    5   16 1
    17    5   17 1
    18    6   18 1
    19    6   19 1
    20    6   20 1
@<TRIPOS>SUBSTRUCTURE
     1 <0>         1 GROUP 0 A     ****
