@<TRIPOS>MOLECULE
AlkEthOH_r1008
   26    26     1     0     0
SMALL
USER_CHARGES

@<TRIPOS>ATOM
      1 C1          0.8041    0.9052    1.5579 CT        1 <0>       -0.14035
      2 C2          1.9056   -0.0538    1.1135 CT        1 <0>        0.12944
      3 C3          0.9458   -0.9402   -0.8663 CT        1 <0>        0.10447
      4 C4         -0.1371    1.3455    0.4312 CT        1 <0>        0.14668
      5 C5         -0.5674   -0.6717   -0.8795 CT        1 <0>        0.12923
      6 C6         -1.0267    2.4889    0.9128 CT        1 <0>       -0.09522
      7 C7         -0.9952   -0.1586   -2.2597 CT        1 <0>       -0.10065
      8 C8         -1.3299   -1.9678   -0.5682 CT        1 <0>       -0.10065
      9 O1          1.4106   -1.2143    0.4527 OS        1 <0>       -0.40289
     10 O2         -1.0099    0.2668    0.1055 OS        1 <0>       -0.41364
     11 H1          0.2108    0.3996    2.3311 HC        1 <0>        0.05973
     12 H2          1.2776    1.7791    2.0206 HC        1 <0>        0.05973
     13 H3          2.6401    0.4572    0.4794 H1        1 <0>        0.04425
     14 H4          2.4472   -0.3988    2.0011 H1        1 <0>        0.04425
     15 H5          1.1688   -1.8228   -1.4778 H1        1 <0>        0.05048
     16 H6          1.5148   -0.1154   -1.3132 H1        1 <0>        0.05048
     17 H7          0.4166    1.6944   -0.4477 H1        1 <0>        0.03566
     18 H8         -1.5924    2.1737    1.7883 HC        1 <0>        0.04408
     19 H9         -1.7210    2.7746    0.1241 HC        1 <0>        0.04408
     20 H10        -0.4130    3.3492    1.1761 HC        1 <0>        0.04408
     21 H11        -2.0656    0.0289   -2.2615 HC        1 <0>        0.04446
     22 H12        -0.7577   -0.9042   -3.0137 HC        1 <0>        0.04446
     23 H13        -0.4662    0.7638   -2.4839 HC        1 <0>        0.04446
     24 H14        -2.3976   -1.7698   -0.5794 HC        1 <0>        0.04446
     25 H15        -1.0383   -2.3311    0.4127 HC        1 <0>        0.04446
     26 H16        -1.0912   -2.7158   -1.3185 HC        1 <0>        0.04446
@<TRIPOS>BOND
     1    1    2 1
     2    1    4 1
     3    2    9 1
     4    3    5 1
     5    3    9 1
     6    4    6 1
     7    4   10 1
     8    5    7 1
     9    5    8 1
    10    5   10 1
    11    1   11 1
    12    1   12 1
    13    2   13 1
    14    2   14 1
    15    3   15 1
    16    3   16 1
    17    4   17 1
    18    6   18 1
    19    6   19 1
    20    6   20 1
    21    7   21 1
    22    7   22 1
    23    7   23 1
    24    8   24 1
    25    8   25 1
    26    8   26 1
@<TRIPOS>SUBSTRUCTURE
     1 <0>         1 GROUP 0 A     ****
