@<TRIPOS>MOLECULE
AlkEthOH_r429
   23    23     1     0     0
SMALL
USER_CHARGES

@<TRIPOS>ATOM
      1 C1         -0.5123   -1.6595   -0.4952 CT        1 <0>       -0.06763
      2 C2         -0.8032   -1.8284    0.9962 CT        1 <0>       -0.11095
      3 C3         -0.8674   -0.2625   -1.0014 CT        1 <0>       -0.10252
      4 C4          0.0893   -1.0127    1.9230 CT        1 <0>        0.12737
      5 C5          0.9690    0.7088    0.5383 CT        1 <0>        0.14092
      6 C6          0.2234    0.8034   -0.7982 CT        1 <0>        0.12478
      7 C7          1.2385    0.7902   -1.9477 CT        1 <0>       -0.12469
      8 O1          0.0902    0.3779    1.6127 OS        1 <0>       -0.39817
      9 O2         -0.4275    2.0828   -0.8276 OH        1 <0>       -0.59121
     10 H1          0.5290   -1.9149   -0.7203 HC        1 <0>        0.04049
     11 H2         -1.1351   -2.3837   -1.0352 HC        1 <0>        0.04049
     12 H3         -1.8495   -1.5534    1.1806 HC        1 <0>        0.04778
     13 H4         -0.7075   -2.8881    1.2612 HC        1 <0>        0.04778
     14 H5         -1.1020   -0.3257   -2.0727 HC        1 <0>        0.05100
     15 H6         -1.8059    0.0689   -0.5363 HC        1 <0>        0.05100
     16 H7         -0.2944   -1.1094    2.9448 H1        1 <0>        0.04379
     17 H8          1.1117   -1.4088    1.9393 H1        1 <0>        0.04379
     18 H9          1.8017   -0.0036    0.4863 H1        1 <0>        0.05682
     19 H10         1.4059    1.6824    0.7893 H1        1 <0>        0.05682
     20 H11         1.9931    1.5525   -1.7739 HC        1 <0>        0.04258
     21 H12         0.7278    0.9939   -2.8848 HC        1 <0>        0.04258
     22 H13         1.7148   -0.1851   -1.9997 HC        1 <0>        0.04258
     23 H14        -0.8460    2.1477   -1.6966 HO        1 <0>        0.39460
@<TRIPOS>BOND
     1    1    2 1
     2    1    3 1
     3    2    4 1
     4    3    6 1
     5    4    8 1
     6    5    6 1
     7    5    8 1
     8    6    7 1
     9    6    9 1
    10    1   10 1
    11    1   11 1
    12    2   12 1
    13    2   13 1
    14    3   14 1
    15    3   15 1
    16    4   16 1
    17    4   17 1
    18    5   18 1
    19    5   19 1
    20    7   20 1
    21    7   21 1
    22    7   22 1
    23    9   23 1
@<TRIPOS>SUBSTRUCTURE
     1 <0>         1 GROUP 0 A     ****
