@<TRIPOS>MOLECULE
AlkEthOH_r284
   27    27     1     0     0
SMALL
USER_CHARGES

@<TRIPOS>ATOM
      1 C1          0.6767    0.1003    1.0415 CT        1 <0>       -0.12932
      2 C2         -2.0761    0.3966   -1.0602 CT        1 <0>        0.10450
      3 C3         -1.3051    1.6186   -0.5758 CT        1 <0>        0.10148
      4 C4         -0.4501   -1.3341   -0.7879 CT        1 <0>        0.13151
      5 C5          0.9759    1.3166    0.1502 CT        1 <0>        0.33976
      6 C6          0.5971   -1.2842    0.3461 CT        1 <0>       -0.06136
      7 C7          1.9687   -1.6801   -0.2285 CT        1 <0>       -0.09054
      8 C8          0.2096   -2.3199    1.4253 CT        1 <0>       -0.09054
      9 O1         -1.6986   -0.7885   -0.3602 OS        1 <0>       -0.41838
     10 O2          0.0687    1.4995   -0.9344 OS        1 <0>       -0.41357
     11 O3          1.0331    2.4753    0.9839 OH        1 <0>       -0.62608
     12 H1          1.4468    0.0650    1.8258 HC        1 <0>        0.05777
     13 H2         -0.2550    0.2791    1.5943 HC        1 <0>        0.05777
     14 H3         -3.1426    0.5524   -0.8677 H1        1 <0>        0.05390
     15 H4         -1.9548    0.2446   -2.1391 H1        1 <0>        0.05390
     16 H5         -1.6926    2.5055   -1.0880 H1        1 <0>        0.06096
     17 H6         -1.4403    1.7759    0.4992 H1        1 <0>        0.06096
     18 H7         -0.0804   -0.8449   -1.6973 H1        1 <0>        0.05112
     19 H8         -0.6406   -2.3766   -1.0710 H1        1 <0>        0.05112
     20 H9          1.9719    1.1940   -0.2882 H2        1 <0>        0.06744
     21 H10         1.8888   -2.6496   -0.7089 HC        1 <0>        0.03807
     22 H11         2.6931   -1.7301    0.5776 HC        1 <0>        0.03807
     23 H12         2.2802   -0.9366   -0.9547 HC        1 <0>        0.03807
     24 H13         0.1467   -3.2987    0.9664 HC        1 <0>        0.03807
     25 H14        -0.7495   -2.0460    1.8466 HC        1 <0>        0.03807
     26 H15         0.9675   -2.3214    2.1988 HC        1 <0>        0.03807
     27 H16         1.7444    2.3172    1.6223 HO        1 <0>        0.40918
@<TRIPOS>BOND
     1    1    5 1
     2    1    6 1
     3    2    3 1
     4    2    9 1
     5    3   10 1
     6    4    6 1
     7    4    9 1
     8    5   10 1
     9    5   11 1
    10    6    7 1
    11    6    8 1
    12    1   12 1
    13    1   13 1
    14    2   14 1
    15    2   15 1
    16    3   16 1
    17    3   17 1
    18    4   18 1
    19    4   19 1
    20    5   20 1
    21    7   21 1
    22    7   22 1
    23    7   23 1
    24    8   24 1
    25    8   25 1
    26    8   26 1
    27   11   27 1
@<TRIPOS>SUBSTRUCTURE
     1 <0>         1 GROUP 0 A     ****
