@<TRIPOS>MOLECULE
AlkEthOH_r865
   27    27     1     0     0
SMALL
USER_CHARGES

@<TRIPOS>ATOM
      1 C1          0.6898    1.8608    0.1445 CT        1 <0>       -0.07262
      2 C2          0.0759    1.5217    1.4969 CT        1 <0>       -0.07262
      3 C3          1.4912    0.7355   -0.5021 CT        1 <0>       -0.06970
      4 C4         -0.5170    0.1255    1.6648 CT        1 <0>       -0.06970
      5 C5         -0.3034   -1.1239   -0.5415 CT        1 <0>       -0.06864
      6 C6          0.6222   -0.2038   -1.3527 CT        1 <0>       -0.06179
      7 C7         -1.2616   -0.4206    0.4377 CT        1 <0>       -0.06179
      8 C8          1.5235   -1.0639   -2.2483 CT        1 <0>       -0.09196
      9 C9         -2.3206   -1.4313    0.9006 CT        1 <0>       -0.09196
     10 H1         -0.0942    2.2057   -0.5409 HC        1 <0>        0.03516
     11 H2          1.3518    2.7242    0.2909 HC        1 <0>        0.03516
     12 H3          0.8344    1.6615    2.2780 HC        1 <0>        0.03516
     13 H4         -0.7034    2.2653    1.7082 HC        1 <0>        0.03516
     14 H5          2.2323    1.2056   -1.1620 HC        1 <0>        0.03834
     15 H6          2.0603    0.1748    0.2491 HC        1 <0>        0.03834
     16 H7          0.2799   -0.5715    1.9553 HC        1 <0>        0.03834
     17 H8         -1.1936    0.1686    2.5285 HC        1 <0>        0.03834
     18 H9         -0.9015   -1.7030   -1.2585 HC        1 <0>        0.03796
     19 H10         0.3003   -1.8606    0.0060 HC        1 <0>        0.03796
     20 H11        -0.0034    0.4063   -2.0178 HC        1 <0>        0.04778
     21 H12        -1.7889    0.3917   -0.0774 HC        1 <0>        0.04778
     22 H13         2.1623   -1.6862   -1.6279 HC        1 <0>        0.03255
     23 H14         2.1389   -0.4186   -2.8687 HC        1 <0>        0.03255
     24 H15         0.9072   -1.6956   -2.8819 HC        1 <0>        0.03255
     25 H16        -1.8337   -2.2533    1.4170 HC        1 <0>        0.03255
     26 H17        -2.8577   -1.8124    0.0371 HC        1 <0>        0.03255
     27 H18        -3.0173   -0.9411    1.5743 HC        1 <0>        0.03255
@<TRIPOS>BOND
     1    1    2 1
     2    1    3 1
     3    2    4 1
     4    3    6 1
     5    4    7 1
     6    5    6 1
     7    5    7 1
     8    6    8 1
     9    7    9 1
    10    1   10 1
    11    1   11 1
    12    2   12 1
    13    2   13 1
    14    3   14 1
    15    3   15 1
    16    4   16 1
    17    4   17 1
    18    5   18 1
    19    5   19 1
    20    6   20 1
    21    7   21 1
    22    8   22 1
    23    8   23 1
    24    8   24 1
    25    9   25 1
    26    9   26 1
    27    9   27 1
@<TRIPOS>SUBSTRUCTURE
     1 <0>         1 GROUP 0 A     ****
