@<TRIPOS>MOLECULE
AlkEthOH_r743
   26    26     1     0     0
SMALL
USER_CHARGES

@<TRIPOS>ATOM
      1 C1          0.2642    0.1757   -2.0524 CT        1 <0>       -0.06551
      2 C2          0.4368   -1.3273   -1.8535 CT        1 <0>       -0.11321
      3 C3          0.9246    0.9931   -0.9408 CT        1 <0>       -0.10551
      4 C4         -0.5587   -1.9582   -0.8854 CT        1 <0>        0.13210
      5 C5          0.0173   -0.5010    0.9362 CT        1 <0>        0.15618
      6 C6          0.2502    0.9491    0.4474 CT        1 <0>        0.13648
      7 C7         -0.4378   -0.5847    2.3952 CT        1 <0>       -0.09287
      8 C8         -1.0424    1.7808    0.4337 CT        1 <0>       -0.11552
      9 O1         -1.0114   -1.1088    0.1571 OS        1 <0>       -0.41771
     10 O2          1.1572    1.5812    1.3625 OH        1 <0>       -0.60510
     11 H1          0.7582    0.4468   -2.9940 HC        1 <0>        0.04739
     12 H2         -0.7921    0.4390   -2.1716 HC        1 <0>        0.04739
     13 H3          0.3461   -1.8398   -2.8191 HC        1 <0>        0.04465
     14 H4          1.4578   -1.5338   -1.5085 HC        1 <0>        0.04465
     15 H5          1.9724    0.6766   -0.8396 HC        1 <0>        0.04380
     16 H6          0.9895    2.0398   -1.2695 HC        1 <0>        0.04380
     17 H7         -1.4520   -2.2601   -1.4434 H1        1 <0>        0.04461
     18 H8         -0.1403   -2.8736   -0.4508 H1        1 <0>        0.04461
     19 H9          0.9521   -1.0703    0.8736 H1        1 <0>        0.05062
     20 H10        -1.3676   -0.0344    2.5207 HC        1 <0>        0.04746
     21 H11         0.3240   -0.1545    3.0415 HC        1 <0>        0.04746
     22 H12        -0.5964   -1.6251    2.6700 HC        1 <0>        0.04746
     23 H13        -1.5051    1.7409    1.4146 HC        1 <0>        0.04581
     24 H14        -1.7228    1.3738   -0.3074 HC        1 <0>        0.04581
     25 H15        -0.8041    2.8098    0.1842 HC        1 <0>        0.04581
     26 H16         1.2767    2.4842    1.0380 HO        1 <0>        0.39934
@<TRIPOS>BOND
     1    1    2 1
     2    1    3 1
     3    2    4 1
     4    3    6 1
     5    4    9 1
     6    5    6 1
     7    5    7 1
     8    5    9 1
     9    6    8 1
    10    6   10 1
    11    1   11 1
    12    1   12 1
    13    2   13 1
    14    2   14 1
    15    3   15 1
    16    3   16 1
    17    4   17 1
    18    4   18 1
    19    5   19 1
    20    7   20 1
    21    7   21 1
    22    7   22 1
    23    8   23 1
    24    8   24 1
    25    8   25 1
    26   10   26 1
@<TRIPOS>SUBSTRUCTURE
     1 <0>         1 GROUP 0 A     ****
