@<TRIPOS>MOLECULE
AlkEthOH_r1080
   23    23     1     0     0
SMALL
USER_CHARGES

@<TRIPOS>ATOM
      1 C1          0.9855    1.5956    0.6613 CT        1 <0>       -0.10825
      2 C2          0.0113    2.0644   -0.4207 CT        1 <0>       -0.09026
      3 C3          2.0011    0.5458    0.2089 CT        1 <0>        0.13241
      4 C4         -0.8513    0.9741   -1.0502 CT        1 <0>        0.13215
      5 C5          0.5331   -1.3371    0.4499 CT        1 <0>        0.09839
      6 C6         -0.8883   -1.2339   -0.1145 CT        1 <0>        0.12117
      7 C7         -1.8421   -2.0978    0.7032 CT        1 <0>       -0.09406
      8 O1          1.4377   -0.6189   -0.3855 OS        1 <0>       -0.42410
      9 O2         -1.3869    0.1077   -0.0524 OS        1 <0>       -0.42238
     10 H1          1.5356    2.4679    1.0356 HC        1 <0>        0.05129
     11 H2          0.4091    1.2186    1.5137 HC        1 <0>        0.05129
     12 H3         -0.6565    2.7998    0.0465 HC        1 <0>        0.04292
     13 H4          0.5534    2.5963   -1.2113 HC        1 <0>        0.04292
     14 H5          2.6687    0.9901   -0.5374 H1        1 <0>        0.04395
     15 H6          2.6295    0.2423    1.0545 H1        1 <0>        0.04395
     16 H7         -1.6990    1.4472   -1.5587 H1        1 <0>        0.04715
     17 H8         -0.2978    0.4295   -1.8238 H1        1 <0>        0.04715
     18 H9          0.5845   -0.9969    1.4905 H1        1 <0>        0.04967
     19 H10         0.8538   -2.3846    0.4347 H1        1 <0>        0.04967
     20 H11        -0.9126   -1.5753   -1.1572 H1        1 <0>        0.04823
     21 H12        -1.8346   -1.7765    1.7444 HC        1 <0>        0.04558
     22 H13        -1.5344   -3.1418    0.6521 HC        1 <0>        0.04558
     23 H14        -2.8547   -2.0068    0.3111 HC        1 <0>        0.04558
@<TRIPOS>BOND
     1    1    2 1
     2    1    3 1
     3    2    4 1
     4    3    8 1
     5    4    9 1
     6    5    6 1
     7    5    8 1
     8    6    7 1
     9    6    9 1
    10    1   10 1
    11    1   11 1
    12    2   12 1
    13    2   13 1
    14    3   14 1
    15    3   15 1
    16    4   16 1
    17    4   17 1
    18    5   18 1
    19    5   19 1
    20    6   20 1
    21    7   21 1
    22    7   22 1
    23    7   23 1
@<TRIPOS>SUBSTRUCTURE
     1 <0>         1 GROUP 0 A     ****
