@<TRIPOS>MOLECULE
AlkEthOH_r1072
   23    23     1     0     0
SMALL
USER_CHARGES

@<TRIPOS>ATOM
      1 C1         -0.1209   -1.5741   -1.2757 CT        1 <0>       -0.10778
      2 C2          0.6980   -1.4328    0.0026 CT        1 <0>       -0.10580
      3 C3          0.0428   -0.4188   -2.2578 CT        1 <0>        0.13019
      4 C4         -0.6705    1.2171   -0.6640 CT        1 <0>        0.13060
      5 C5         -0.0828    0.9388    0.7230 CT        1 <0>       -0.08751
      6 C6          0.0120   -0.5627    1.0631 CT        1 <0>        0.14890
      7 C7         -0.9058    1.6739    1.7889 CT        1 <0>       -0.08915
      8 O1          0.2736    0.8482   -1.6613 OS        1 <0>       -0.41637
      9 O2          0.7535   -0.6896    2.2812 OH        1 <0>       -0.60130
     10 H1          0.1564   -2.5020   -1.7910 HC        1 <0>        0.04539
     11 H2         -1.1816   -1.6861   -1.0184 HC        1 <0>        0.04539
     12 H3          0.8428   -2.4342    0.4300 HC        1 <0>        0.05241
     13 H4          1.7079   -1.0611   -0.2115 HC        1 <0>        0.05241
     14 H5          0.9072   -0.6177   -2.9011 H1        1 <0>        0.04424
     15 H6         -0.8291   -0.3535   -2.9189 H1        1 <0>        0.04424
     16 H7         -1.6422    0.7315   -0.8155 H1        1 <0>        0.04671
     17 H8         -0.8302    2.2948   -0.7824 H1        1 <0>        0.04671
     18 H9          0.9352    1.3498    0.7592 HC        1 <0>        0.08013
     19 H10        -0.9939   -0.9605    1.2559 H1        1 <0>        0.02602
     20 H11        -1.9237    1.2945    1.7852 HC        1 <0>        0.03919
     21 H12        -0.9146    2.7376    1.5689 HC        1 <0>        0.03919
     22 H13        -0.4611    1.5093    2.7662 HC        1 <0>        0.03919
     23 H14         0.7291   -1.6285    2.5153 HO        1 <0>        0.39700
@<TRIPOS>BOND
     1    1    2 1
     2    1    3 1
     3    2    6 1
     4    3    8 1
     5    4    5 1
     6    4    8 1
     7    5    6 1
     8    5    7 1
     9    6    9 1
    10    1   10 1
    11    1   11 1
    12    2   12 1
    13    2   13 1
    14    3   14 1
    15    3   15 1
    16    4   16 1
    17    4   17 1
    18    5   18 1
    19    6   19 1
    20    7   20 1
    21    7   21 1
    22    7   22 1
    23    9   23 1
@<TRIPOS>SUBSTRUCTURE
     1 <0>         1 GROUP 0 A     ****
