@<TRIPOS>MOLECULE
AlkEthOH_r1132
   28    28     1     0     0
SMALL
USER_CHARGES

@<TRIPOS>ATOM
      1 C1         -2.0858   -0.1635    1.3103 CT        1 <0>       -0.11004
      2 C2         -2.0246    1.3020    0.8536 CT        1 <0>       -0.07777
      3 C3         -2.1383   -1.2006    0.1867 CT        1 <0>        0.13376
      4 C4         -0.7540    1.6948    0.0997 CT        1 <0>        0.14119
      5 C5          0.1930   -1.3697   -0.3991 CT        1 <0>        0.34716
      6 C6          1.4308    0.7041   -0.0712 CT        1 <0>        0.53240
      7 C7          0.5385   -2.7147   -1.0226 CT        1 <0>       -0.10802
      8 C8          2.5619    0.2551    0.8632 CT        1 <0>       -0.11430
      9 O1         -1.1347   -1.0348   -0.8049 OS        1 <0>       -0.43093
     10 O2          0.3710    1.1529    0.7834 OS        1 <0>       -0.44081
     11 O3          1.1183   -0.4108   -0.9249 OS        1 <0>       -0.48321
     12 O4          1.9240    1.7852   -0.8741 OH        1 <0>       -0.60831
     13 H1         -1.2320   -0.3710    1.9654 HC        1 <0>        0.05062
     14 H2         -2.9775   -0.2953    1.9358 HC        1 <0>        0.05062
     15 H3         -2.9035    1.5498    0.2474 HC        1 <0>        0.04567
     16 H4         -2.0830    1.9203    1.7586 HC        1 <0>        0.04567
     17 H5         -2.0908   -2.2156    0.5980 H1        1 <0>        0.04423
     18 H6         -3.1022   -1.1115   -0.3265 H1        1 <0>        0.04423
     19 H7         -0.8093    1.3602   -0.9409 H1        1 <0>        0.06043
     20 H8         -0.6542    2.7855    0.0803 H1        1 <0>        0.06043
     21 H9          0.2900   -1.4511    0.6888 H2        1 <0>        0.05190
     22 H10         0.4489   -2.6581   -2.1080 HC        1 <0>        0.05194
     23 H11        -0.1400   -3.4840   -0.6525 HC        1 <0>        0.05194
     24 H12         1.5613   -2.9939   -0.7673 HC        1 <0>        0.05194
     25 H13         3.4040   -0.1000    0.2737 HC        1 <0>        0.05974
     26 H14         2.2084   -0.5484    1.5052 HC        1 <0>        0.05974
     27 H15         2.8818    1.0928    1.4787 HC        1 <0>        0.05974
     28 H16         2.6788    1.4332   -1.3677 HO        1 <0>        0.43004
@<TRIPOS>BOND
     1    1    2 1
     2    1    3 1
     3    2    4 1
     4    3    9 1
     5    4   10 1
     6    5    7 1
     7    5    9 1
     8    5   11 1
     9    6    8 1
    10    6   10 1
    11    6   11 1
    12    6   12 1
    13    1   13 1
    14    1   14 1
    15    2   15 1
    16    2   16 1
    17    3   17 1
    18    3   18 1
    19    4   19 1
    20    4   20 1
    21    5   21 1
    22    7   22 1
    23    7   23 1
    24    7   24 1
    25    8   25 1
    26    8   26 1
    27    8   27 1
    28   12   28 1
@<TRIPOS>SUBSTRUCTURE
     1 <0>         1 GROUP 0 A     ****
