@<TRIPOS>MOLECULE
AlkEthOH_r1075
   27    27     1     0     0
SMALL
USER_CHARGES

@<TRIPOS>ATOM
      1 C1         -0.1955   -1.1892   -2.0028 CT        1 <0>       -0.06647
      2 C2         -1.1087    0.0412   -1.9238 CT        1 <0>       -0.11566
      3 C3         -0.0375   -1.9923   -0.7037 CT        1 <0>       -0.10961
      4 C4         -0.3466    1.3704   -1.9594 CT        1 <0>        0.13414
      5 C5         -0.1484    1.8936    0.3634 CT        1 <0>        0.10090
      6 C6          0.2219    0.8844    1.4497 CT        1 <0>        0.12930
      7 C7          0.6589   -1.2329    0.4253 CT        1 <0>        0.33135
      8 C8         -0.4269    1.2615    2.7749 CT        1 <0>       -0.09786
      9 O1          0.5248    1.5467   -0.8473 OS        1 <0>       -0.42915
     10 O2         -0.2969   -0.3916    1.0663 OS        1 <0>       -0.41464
     11 O3          1.1549   -2.1917    1.3574 OH        1 <0>       -0.62108
     12 H1         -0.6267   -1.8744   -2.7447 HC        1 <0>        0.04158
     13 H2          0.7940   -0.9156   -2.3886 HC        1 <0>        0.04158
     14 H3         -1.7719    0.0289   -2.7981 HC        1 <0>        0.05561
     15 H4         -1.7587   -0.0172   -1.0452 HC        1 <0>        0.05561
     16 H5         -1.0243   -2.3373   -0.3695 HC        1 <0>        0.05466
     17 H6          0.5396   -2.8963   -0.9376 HC        1 <0>        0.05466
     18 H7          0.2739    1.4065   -2.8619 H1        1 <0>        0.04502
     19 H8         -1.0431    2.2150   -2.0247 H1        1 <0>        0.04502
     20 H9         -1.2356    1.9270    0.2219 H1        1 <0>        0.04679
     21 H10         0.1862    2.8966    0.6484 H1        1 <0>        0.04679
     22 H11         1.3094    0.8344    1.5851 H1        1 <0>        0.06146
     23 H12         1.5143   -0.6793    0.0199 H2        1 <0>        0.06411
     24 H13        -1.5096    1.3158    2.6586 HC        1 <0>        0.04664
     25 H14        -0.0585    2.2319    3.1083 HC        1 <0>        0.04664
     26 H15        -0.1901    0.5142    3.5327 HC        1 <0>        0.04664
     27 H16         1.7750   -2.7548    0.8692 HO        1 <0>        0.40597
@<TRIPOS>BOND
     1    1    2 1
     2    1    3 1
     3    2    4 1
     4    3    7 1
     5    4    9 1
     6    5    6 1
     7    5    9 1
     8    6    8 1
     9    6   10 1
    10    7   10 1
    11    7   11 1
    12    1   12 1
    13    1   13 1
    14    2   14 1
    15    2   15 1
    16    3   16 1
    17    3   17 1
    18    4   18 1
    19    4   19 1
    20    5   20 1
    21    5   21 1
    22    6   22 1
    23    7   23 1
    24    8   24 1
    25    8   25 1
    26    8   26 1
    27   11   27 1
@<TRIPOS>SUBSTRUCTURE
     1 <0>         1 GROUP 0 A     ****
