@<TRIPOS>MOLECULE
AlkEthOH_r220
   20    20     1     0     0
SMALL
USER_CHARGES

@<TRIPOS>ATOM
      1 C1         -0.0077   -0.2941   -1.0628 CT        1 <0>       -0.10735
      2 C2          0.4867    0.2609    0.9639 CT        1 <0>       -0.10727
      3 C3          0.0549    1.0529   -0.2973 CT        1 <0>        0.13093
      4 C4          0.0029   -1.0479    0.2907 CT        1 <0>        0.13093
      5 C5         -1.2853    1.7674   -0.1744 CT        1 <0>       -0.11045
      6 C6          0.9968   -2.1985    0.3539 CT        1 <0>       -0.11045
      7 O1          1.0443    1.9767   -0.8000 OH        1 <0>       -0.58874
      8 O2         -1.2925   -1.5175    0.7261 OH        1 <0>       -0.58874
      9 H1         -0.9051   -0.4478   -1.6714 HC        1 <0>        0.06730
     10 H2          0.8654   -0.4833   -1.6988 HC        1 <0>        0.06730
     11 H3          1.5641    0.2994    1.1649 HC        1 <0>        0.06730
     12 H4         -0.0369    0.5287    1.8877 HC        1 <0>        0.06730
     13 H5         -1.1607    2.7016    0.3732 HC        1 <0>        0.04697
     14 H6         -1.9963    1.1366    0.3591 HC        1 <0>        0.04697
     15 H7         -1.6821    1.9882   -1.1653 HC        1 <0>        0.04697
     16 H8          0.9496   -2.6810    1.3308 HC        1 <0>        0.04697
     17 H9          2.0097   -1.8277    0.1927 HC        1 <0>        0.04697
     18 H10         0.7650   -2.9364   -0.4152 HC        1 <0>        0.04697
     19 H11         0.9742    2.7589   -0.2400 HO        1 <0>        0.40006
     20 H12        -1.1349   -1.9601    1.5682 HO        1 <0>        0.40006
@<TRIPOS>BOND
     1    1    3 1
     2    1    4 1
     3    2    3 1
     4    2    4 1
     5    3    5 1
     6    3    7 1
     7    4    6 1
     8    4    8 1
     9    1    9 1
    10    1   10 1
    11    2   11 1
    12    2   12 1
    13    5   13 1
    14    5   14 1
    15    5   15 1
    16    6   16 1
    17    6   17 1
    18    6   18 1
    19    7   19 1
    20    8   20 1
@<TRIPOS>SUBSTRUCTURE
     1 <0>         1 GROUP 0 A     ****
