@<TRIPOS>MOLECULE
AlkEthOH_r605
   16    16     1     0     0
SMALL
USER_CHARGES

@<TRIPOS>ATOM
      1 C1         -0.0542    1.0595    0.6468 CT        1 <0>        0.11660
      2 C2         -1.1269   -0.4342   -0.2925 CT        1 <0>        0.11660
      3 C3          0.3856   -0.1643   -0.1792 CT        1 <0>       -0.11158
      4 C4          1.0746    0.1681   -1.4946 CT        1 <0>       -0.08291
      5 C5          1.1429   -1.2142    0.6261 CT        1 <0>       -0.08291
      6 O1         -1.4219    0.5850    0.6933 OS        1 <0>       -0.42540
      7 H1          0.3763    1.1455    1.6490 H1        1 <0>        0.05548
      8 H2          0.0048    2.0307    0.1448 H1        1 <0>        0.05548
      9 H3         -1.5927   -0.1936   -1.2537 H1        1 <0>        0.05548
     10 H4         -1.4665   -1.4213    0.0352 H1        1 <0>        0.05548
     11 H5          1.3521   -0.7496   -2.0146 HC        1 <0>        0.04128
     12 H6          1.9757    0.7535   -1.3081 HC        1 <0>        0.04128
     13 H7          0.4049    0.7459   -2.1329 HC        1 <0>        0.04128
     14 H8          1.4217   -2.0474   -0.0185 HC        1 <0>        0.04128
     15 H9          0.5148   -1.5865    1.4350 HC        1 <0>        0.04128
     16 H10         2.0460   -0.7767    1.0509 HC        1 <0>        0.04128
@<TRIPOS>BOND
     1    1    3 1
     2    1    6 1
     3    2    3 1
     4    2    6 1
     5    3    4 1
     6    3    5 1
     7    1    7 1
     8    1    8 1
     9    2    9 1
    10    2   10 1
    11    4   11 1
    12    4   12 1
    13    4   13 1
    14    5   14 1
    15    5   15 1
    16    5   16 1
@<TRIPOS>SUBSTRUCTURE
     1 <0>         1 GROUP 0 A     ****
