@<TRIPOS>MOLECULE
AlkEthOH_r1114
   15    15     1     0     0
SMALL
USER_CHARGES

@<TRIPOS>ATOM
      1 C1         -0.1586    0.8253   -1.2507 CT        1 <0>        0.11786
      2 C2         -0.8940   -0.4063   -0.7823 CT        1 <0>        0.31205
      3 C3          1.0672   -0.1941    0.3472 CT        1 <0>        0.34673
      4 C4          1.0821   -0.1423    1.8627 CT        1 <0>       -0.11990
      5 O1          0.7387    1.0989   -0.1729 OS        1 <0>       -0.44264
      6 O2          0.1082   -1.1599   -0.1013 OS        1 <0>       -0.48015
      7 O3         -1.9436   -0.0216    0.0972 OH        1 <0>       -0.61648
      8 H1          0.4438    0.6221   -2.1426 H1        1 <0>        0.07227
      9 H2         -0.8036    1.6905   -1.4247 H1        1 <0>        0.07227
     10 H3         -1.3167   -0.9795   -1.6129 H2        1 <0>        0.07932
     11 H4          2.0521   -0.4861   -0.0327 H2        1 <0>        0.06533
     12 H5          0.1000    0.1489    2.2427 HC        1 <0>        0.05545
     13 H6          1.8194    0.5849    2.2108 HC        1 <0>        0.05545
     14 H7          1.3380   -1.1216    2.2739 HC        1 <0>        0.05545
     15 H8         -2.3891   -0.8382    0.3740 HO        1 <0>        0.42699
@<TRIPOS>BOND
     1    1    2 1
     2    1    5 1
     3    2    6 1
     4    2    7 1
     5    3    4 1
     6    3    5 1
     7    3    6 1
     8    1    8 1
     9    1    9 1
    10    2   10 1
    11    3   11 1
    12    4   12 1
    13    4   13 1
    14    4   14 1
    15    7   15 1
@<TRIPOS>SUBSTRUCTURE
     1 <0>         1 GROUP 0 A     ****
