@<TRIPOS>MOLECULE
AlkEthOH_r450
   29    29     1     0     0
SMALL
USER_CHARGES

@<TRIPOS>ATOM
      1 C1          0.3898    0.1491    1.9468 CT        1 <0>       -0.06002
      2 C2          0.4522   -1.3435    1.6182 CT        1 <0>       -0.11229
      3 C3         -0.5991   -0.4900   -1.8435 CT        1 <0>       -0.09624
      4 C4         -0.1728    1.1072    0.8903 CT        1 <0>       -0.10885
      5 C5          0.7238    0.1528   -1.3955 CT        1 <0>       -0.05839
      6 C6         -0.8991   -1.9849    1.3096 CT        1 <0>        0.13474
      7 C7         -0.9663   -1.7544   -1.0688 CT        1 <0>        0.12818
      8 C8          0.6266    1.3365   -0.4098 CT        1 <0>        0.15902
      9 C9          2.0419    1.8501   -0.1059 CT        1 <0>       -0.12457
     10 O1         -1.5457   -1.4112    0.1824 OS        1 <0>       -0.42419
     11 O2         -0.0512    2.3885   -1.1239 OH        1 <0>       -0.60626
     12 H1         -0.2252    0.2631    2.8498 HC        1 <0>        0.03700
     13 H2          1.3931    0.4808    2.2391 HC        1 <0>        0.03700
     14 H3          1.1580   -1.5176    0.8049 HC        1 <0>        0.04445
     15 H4          0.8753   -1.8604    2.4892 HC        1 <0>        0.04445
     16 H5         -1.4169    0.2381   -1.8033 HC        1 <0>        0.05975
     17 H6         -0.4805   -0.7817   -2.8950 HC        1 <0>        0.05975
     18 H7         -1.2142    0.8647    0.6562 HC        1 <0>        0.05700
     19 H8         -0.2631    2.0866    1.3857 HC        1 <0>        0.05700
     20 H9          1.4197   -0.6099   -1.0353 HC        1 <0>        0.04588
     21 H10         1.1878    0.5423   -2.3141 HC        1 <0>        0.04588
     22 H11        -0.7907   -3.0662    1.1637 H1        1 <0>        0.04421
     23 H12        -1.5668   -1.8464    2.1671 H1        1 <0>        0.04421
     24 H13        -1.7366   -2.2960   -1.6288 H1        1 <0>        0.03672
     25 H14        -0.1080   -2.4294   -0.9712 H1        1 <0>        0.03672
     26 H15         2.5784    2.0015   -1.0378 HC        1 <0>        0.04082
     27 H16         2.5677    1.1196    0.5015 HC        1 <0>        0.04082
     28 H17         1.9760    2.7908    0.4326 HC        1 <0>        0.04082
     29 H18        -0.0346    3.1545   -0.5365 HO        1 <0>        0.39639
@<TRIPOS>BOND
     1    1    2 1
     2    1    4 1
     3    2    6 1
     4    3    5 1
     5    3    7 1
     6    4    8 1
     7    5    8 1
     8    6   10 1
     9    7   10 1
    10    8    9 1
    11    8   11 1
    12    1   12 1
    13    1   13 1
    14    2   14 1
    15    2   15 1
    16    3   16 1
    17    3   17 1
    18    4   18 1
    19    4   19 1
    20    5   20 1
    21    5   21 1
    22    6   22 1
    23    6   23 1
    24    7   24 1
    25    7   25 1
    26    9   26 1
    27    9   27 1
    28    9   28 1
    29   11   29 1
@<TRIPOS>SUBSTRUCTURE
     1 <0>         1 GROUP 0 A     ****
