@<TRIPOS>MOLECULE
AlkEthOH_r1088
   23    23     1     0     0
SMALL
USER_CHARGES

@<TRIPOS>ATOM
      1 C1          1.1345   -0.4082    1.6559 CT        1 <0>       -0.14878
      2 C2         -0.3021   -0.9179    1.7837 CT        1 <0>        0.13834
      3 C3          1.8308   -0.8003    0.3515 CT        1 <0>        0.13834
      4 C4         -1.3110    0.7738    0.4112 CT        1 <0>        0.13379
      5 C5          0.8134    0.8909   -1.0155 CT        1 <0>        0.13379
      6 C6         -0.7004    1.1562   -0.9480 CT        1 <0>       -0.10176
      7 C7         -1.4211    0.4161   -2.0820 CT        1 <0>       -0.08282
      8 O1         -1.1374   -0.6169    0.6704 OS        1 <0>       -0.40316
      9 O2          1.0933   -0.4939   -0.8274 OS        1 <0>       -0.40316
     10 H1          1.1357    0.6830    1.7474 HC        1 <0>        0.04863
     11 H2          1.7236   -0.7809    2.5025 HC        1 <0>        0.04863
     12 H3         -0.2867   -2.0091    1.8797 H1        1 <0>        0.04445
     13 H4         -0.7651   -0.5247    2.6961 H1        1 <0>        0.04445
     14 H5          2.8176   -0.3269    0.2903 H1        1 <0>        0.04445
     15 H6          1.9966   -1.8831    0.3467 H1        1 <0>        0.04445
     16 H7         -0.9026    1.3989    1.2135 H1        1 <0>        0.03828
     17 H8         -2.3903    0.9636    0.3897 H1        1 <0>        0.03828
     18 H9          1.1846    1.1607   -2.0109 H1        1 <0>        0.03828
     19 H10         1.3537    1.5234   -0.3018 H1        1 <0>        0.03828
     20 H11        -0.8604    2.2314   -1.0981 HC        1 <0>        0.04424
     21 H12        -1.2816   -0.6547   -1.9620 HC        1 <0>        0.04100
     22 H13        -1.0106    0.7297   -3.0378 HC        1 <0>        0.04100
     23 H14        -2.4820    0.6488   -2.0498 HC        1 <0>        0.04100
@<TRIPOS>BOND
     1    1    2 1
     2    1    3 1
     3    2    8 1
     4    3    9 1
     5    4    6 1
     6    4    8 1
     7    5    6 1
     8    5    9 1
     9    6    7 1
    10    1   10 1
    11    1   11 1
    12    2   12 1
    13    2   13 1
    14    3   14 1
    15    3   15 1
    16    4   16 1
    17    4   17 1
    18    5   18 1
    19    5   19 1
    20    6   20 1
    21    7   21 1
    22    7   22 1
    23    7   23 1
@<TRIPOS>SUBSTRUCTURE
     1 <0>         1 GROUP 0 A     ****
