@<TRIPOS>MOLECULE
AlkEthOH_r683
   16    16     1     0     0
SMALL
USER_CHARGES

@<TRIPOS>ATOM
      1 C1         -0.0657    0.5892    1.4733 CT        1 <0>        0.11817
      2 C2          0.0386   -0.8819    1.1538 CT        1 <0>        0.31638
      3 C3          0.2807    0.3582   -0.7451 CT        1 <0>        0.52624
      4 C4         -0.6480    0.1219   -1.9308 CT        1 <0>       -0.10410
      5 O1         -0.4182    1.1666    0.2147 OS        1 <0>       -0.41199
      6 O2          0.6037   -0.9124   -0.1567 OS        1 <0>       -0.50246
      7 O3         -1.2624   -1.4570    1.1687 OH        1 <0>       -0.61333
      8 O4          1.4713    1.0153   -1.1779 OH        1 <0>       -0.60880
      9 H1         -0.8287    0.8303    2.2181 H1        1 <0>        0.07919
     10 H2          0.8993    1.0081    1.7783 H1        1 <0>        0.07919
     11 H3          0.6737   -1.4182    1.8649 H2        1 <0>        0.07763
     12 H4         -0.1487   -0.4909   -2.6827 HC        1 <0>        0.06449
     13 H5         -0.9289    1.0740   -2.3834 HC        1 <0>        0.06449
     14 H6         -1.5527   -0.3920   -1.6026 HC        1 <0>        0.06449
     15 H7         -1.1536   -2.3985    0.9598 HO        1 <0>        0.42573
     16 H8          1.8904    0.4300   -1.8282 HO        1 <0>        0.42468
@<TRIPOS>BOND
     1    1    2 1
     2    1    5 1
     3    2    6 1
     4    2    7 1
     5    3    4 1
     6    3    5 1
     7    3    6 1
     8    3    8 1
     9    1    9 1
    10    1   10 1
    11    2   11 1
    12    4   12 1
    13    4   13 1
    14    4   14 1
    15    7   15 1
    16    8   16 1
@<TRIPOS>SUBSTRUCTURE
     1 <0>         1 GROUP 0 A     ****
