@<TRIPOS>MOLECULE
AlkEthOH_r1055
   15    15     1     0     0
SMALL
USER_CHARGES

@<TRIPOS>ATOM
      1 C1         -0.5704   -1.1087    0.6161 CT        1 <0>        0.11435
      2 C2          0.0726   -0.7890   -0.7118 CT        1 <0>        0.11730
      3 C3          0.0335    1.0761    0.5555 CT        1 <0>        0.50959
      4 C4         -0.5783   -1.4773   -1.8924 CT        1 <0>       -0.09744
      5 O1         -0.1625   -0.0261    1.4538 OS        1 <0>       -0.47202
      6 O2         -0.0884    0.6280   -0.8026 OS        1 <0>       -0.41891
      7 O3          1.2935    1.6970    0.7813 OH        1 <0>       -0.62050
      8 H1         -1.6647   -1.0954    0.5627 H1        1 <0>        0.06068
      9 H2         -0.2426   -2.0628    1.0371 H1        1 <0>        0.06068
     10 H3          1.1481   -1.0030   -0.6874 H1        1 <0>        0.06757
     11 H4         -0.7578    1.8114    0.7379 H3        1 <0>        0.10417
     12 H5         -1.6505   -1.2638   -1.9165 HC        1 <0>        0.05070
     13 H6         -0.4429   -2.5603   -1.8263 HC        1 <0>        0.05070
     14 H7         -0.1354   -1.1299   -2.8299 HC        1 <0>        0.05070
     15 H8          1.2891    2.0103    1.6998 HO        1 <0>        0.42243
@<TRIPOS>BOND
     1    1    2 1
     2    1    5 1
     3    2    4 1
     4    2    6 1
     5    3    5 1
     6    3    6 1
     7    3    7 1
     8    1    8 1
     9    1    9 1
    10    2   10 1
    11    3   11 1
    12    4   12 1
    13    4   13 1
    14    4   14 1
    15    7   15 1
@<TRIPOS>SUBSTRUCTURE
     1 <0>         1 GROUP 0 A     ****
