@<TRIPOS>MOLECULE
AlkEthOH_r781
   34    34     1     0     0
SMALL
USER_CHARGES

@<TRIPOS>ATOM
      1 C1         -1.5808    1.4050   -0.1099 CT        1 <0>       -0.07231
      2 C2         -2.6739    0.3395   -0.2758 CT        1 <0>       -0.08363
      3 C3         -0.6316    1.1488    1.0708 CT        1 <0>       -0.06452
      4 C4          1.2923    0.1349   -0.3759 CT        1 <0>       -0.06401
      5 C5         -2.1447   -1.0768   -0.4960 CT        1 <0>        0.12821
      6 C6         -0.0205   -1.8959   -1.2313 CT        1 <0>        0.13270
      7 C7          0.8939   -1.3406   -0.1188 CT        1 <0>       -0.09653
      8 C8          0.8883    1.1542    0.7342 CT        1 <0>       -0.04743
      9 C9          2.1358   -2.2284    0.0057 CT        1 <0>       -0.08981
     10 C10         1.6698    0.8439    2.0297 CT        1 <0>       -0.08885
     11 C11         1.3079    2.5658    0.2672 CT        1 <0>       -0.08885
     12 O1         -1.1365   -1.0504   -1.5000 OS        1 <0>       -0.41815
     13 H1         -1.0402    1.5101   -1.0551 HC        1 <0>        0.04668
     14 H2         -2.0770    2.3712    0.0495 HC        1 <0>        0.04668
     15 H3         -3.3451    0.3474    0.5908 HC        1 <0>        0.04331
     16 H4         -3.2774    0.6245   -1.1469 HC        1 <0>        0.04331
     17 H5         -0.8193    1.9332    1.8182 HC        1 <0>        0.03508
     18 H6         -0.8968    0.2200    1.5865 HC        1 <0>        0.03508
     19 H7          2.3820    0.1962   -0.5084 HC        1 <0>        0.04802
     20 H8          0.8871    0.4691   -1.3385 HC        1 <0>        0.04802
     21 H9         -1.7846   -1.5010    0.4463 H1        1 <0>        0.03136
     22 H10        -2.9564   -1.7237   -0.8461 H1        1 <0>        0.03136
     23 H11         0.5464   -1.9707   -2.1664 H1        1 <0>        0.04467
     24 H12        -0.3724   -2.9060   -0.9882 H1        1 <0>        0.04467
     25 H13         0.3590   -1.4180    0.8313 HC        1 <0>        0.05092
     26 H14         2.7074   -2.1876   -0.9183 HC        1 <0>        0.03490
     27 H15         1.8326   -3.2549    0.1965 HC        1 <0>        0.03490
     28 H16         2.7544   -1.8767    0.8278 HC        1 <0>        0.03490
     29 H17         2.7303    0.8445    1.8097 HC        1 <0>        0.03322
     30 H18         1.3689   -0.1292    2.3977 HC        1 <0>        0.03322
     31 H19         1.4445    1.6044    2.7673 HC        1 <0>        0.03322
     32 H20         2.3657    2.5595    0.0356 HC        1 <0>        0.03322
     33 H21         1.1072    3.2731    1.0623 HC        1 <0>        0.03322
     34 H22         0.7371    2.8283   -0.6149 HC        1 <0>        0.03322
@<TRIPOS>BOND
     1    1    2 1
     2    1    3 1
     3    2    5 1
     4    3    8 1
     5    4    7 1
     6    4    8 1
     7    5   12 1
     8    6    7 1
     9    6   12 1
    10    7    9 1
    11    8   10 1
    12    8   11 1
    13    1   13 1
    14    1   14 1
    15    2   15 1
    16    2   16 1
    17    3   17 1
    18    3   18 1
    19    4   19 1
    20    4   20 1
    21    5   21 1
    22    5   22 1
    23    6   23 1
    24    6   24 1
    25    7   25 1
    26    9   26 1
    27    9   27 1
    28    9   28 1
    29   10   29 1
    30   10   30 1
    31   10   31 1
    32   11   32 1
    33   11   33 1
    34   11   34 1
@<TRIPOS>SUBSTRUCTURE
     1 <0>         1 GROUP 0 A     ****
