@<TRIPOS>MOLECULE
AlkEthOH_r257
   20    20     1     0     0
SMALL
USER_CHARGES

@<TRIPOS>ATOM
      1 C1          0.4914    0.9646   -0.4298 CT        1 <0>       -0.11213
      2 C2          0.9190   -0.4818   -0.1255 CT        1 <0>        0.14126
      3 C3         -0.8828    0.5370    0.1126 CT        1 <0>        0.31893
      4 C4          1.3183   -1.3038   -1.3421 CT        1 <0>       -0.09630
      5 C5          1.8916   -0.6334    1.0359 CT        1 <0>       -0.09630
      6 C6         -1.2802    1.1500    1.4448 CT        1 <0>       -0.11862
      7 O1         -0.4253   -0.8282    0.2964 OS        1 <0>       -0.45213
      8 O2         -1.9732    0.6551   -0.8222 OH        1 <0>       -0.58666
      9 H1          0.9979    1.7379    0.1562 HC        1 <0>        0.07196
     10 H2          0.5109    1.2552   -1.4847 HC        1 <0>        0.07196
     11 H3          1.6053   -2.3107   -1.0365 HC        1 <0>        0.04693
     12 H4          2.1626   -0.8359   -1.8499 HC        1 <0>        0.04693
     13 H5          0.4820   -1.3722   -2.0391 HC        1 <0>        0.04693
     14 H6          2.1399   -1.6853    1.1809 HC        1 <0>        0.04693
     15 H7          1.4433   -0.2473    1.9518 HC        1 <0>        0.04693
     16 H8          2.8082   -0.0795    0.8307 HC        1 <0>        0.04693
     17 H9         -2.2650    0.7893    1.7470 HC        1 <0>        0.05249
     18 H10        -1.3153    2.2378    1.3636 HC        1 <0>        0.05249
     19 H11        -0.5561    0.8791    2.2154 HC        1 <0>        0.05249
     20 H12        -2.7577    0.3552   -0.3462 HO        1 <0>        0.41898
@<TRIPOS>BOND
     1    1    2 1
     2    1    3 1
     3    2    4 1
     4    2    5 1
     5    2    7 1
     6    3    6 1
     7    3    7 1
     8    3    8 1
     9    1    9 1
    10    1   10 1
    11    4   11 1
    12    4   12 1
    13    4   13 1
    14    5   14 1
    15    5   15 1
    16    5   16 1
    17    6   17 1
    18    6   18 1
    19    6   19 1
    20    8   20 1
@<TRIPOS>SUBSTRUCTURE
     1 <0>         1 GROUP 0 A     ****
