@<TRIPOS>MOLECULE
AlkEthOH_r813
   20    20     1     0     0
SMALL
USER_CHARGES

@<TRIPOS>ATOM
      1 C1         -0.8612    0.5035   -0.3233 CT        1 <0>       -0.09014
      2 C2          0.3566   -1.4943   -0.0934 CT        1 <0>        0.13290
      3 C3         -1.0083   -0.9055    0.2196 CT        1 <0>       -0.09808
      4 C4          0.5781    0.8278    0.0618 CT        1 <0>        0.33214
      5 C5         -2.1621   -1.6854   -0.3820 CT        1 <0>       -0.08553
      6 C6          1.2094    1.8684   -0.8507 CT        1 <0>       -0.11070
      7 O1          1.2992   -0.4117   -0.0420 OS        1 <0>       -0.45541
      8 O2          0.5885    1.2972    1.4100 OH        1 <0>       -0.61772
      9 H1         -0.9853    0.4989   -1.4134 HC        1 <0>        0.06648
     10 H2         -1.5918    1.1928    0.1116 HC        1 <0>        0.06648
     11 H3          0.6510   -2.2656    0.6244 H1        1 <0>        0.04817
     12 H4          0.4020   -1.9230   -1.1005 H1        1 <0>        0.04817
     13 H5         -1.1379   -0.8574    1.3088 HC        1 <0>        0.07486
     14 H6         -2.0539   -1.7462   -1.4672 HC        1 <0>        0.03823
     15 H7         -3.1112   -1.1955   -0.1534 HC        1 <0>        0.03823
     16 H8         -2.1867   -2.6995    0.0232 HC        1 <0>        0.03823
     17 H9          2.2353    2.0683   -0.5385 HC        1 <0>        0.05196
     18 H10         0.6412    2.7986   -0.8084 HC        1 <0>        0.05196
     19 H11         1.2187    1.5082   -1.8804 HC        1 <0>        0.05196
     20 H12         1.5128    1.4940    1.6243 HO        1 <0>        0.41781
@<TRIPOS>BOND
     1    1    3 1
     2    1    4 1
     3    2    3 1
     4    2    7 1
     5    3    5 1
     6    4    6 1
     7    4    7 1
     8    4    8 1
     9    1    9 1
    10    1   10 1
    11    2   11 1
    12    2   12 1
    13    3   13 1
    14    5   14 1
    15    5   15 1
    16    5   16 1
    17    6   17 1
    18    6   18 1
    19    6   19 1
    20    8   20 1
@<TRIPOS>SUBSTRUCTURE
     1 <0>         1 GROUP 0 A     ****
