@<TRIPOS>MOLECULE
AlkEthOH_r369
   32    32     1     0     0
SMALL
USER_CHARGES

@<TRIPOS>ATOM
      1 C1         -2.3042    0.5530   -0.0336 CT        1 <0>       -0.07064
      2 C2         -1.4886    1.1685   -1.1792 CT        1 <0>       -0.07984
      3 C3         -1.9278    1.1446    1.3293 CT        1 <0>       -0.06452
      4 C4         -0.9162    0.1613   -2.1758 CT        1 <0>       -0.06714
      5 C5         -0.9036    0.3619    2.1646 CT        1 <0>       -0.10410
      6 C6          0.0648   -0.8871   -1.6279 CT        1 <0>       -0.09840
      7 C7          0.1307   -0.4873    1.4191 CT        1 <0>        0.33772
      8 C8          1.2440   -0.3818   -0.7546 CT        1 <0>        0.16046
      9 C9          2.1718   -1.5593   -0.4064 CT        1 <0>       -0.09993
     10 C10         2.0761    0.6546   -1.5277 CT        1 <0>       -0.09993
     11 O1          0.7919    0.2948    0.4303 OS        1 <0>       -0.39687
     12 O2          1.0611   -1.0231    2.3621 OH        1 <0>       -0.62142
     13 H1         -3.3587    0.7957   -0.2219 HC        1 <0>        0.03558
     14 H2         -2.2587   -0.5396   -0.0169 HC        1 <0>        0.03558
     15 H3         -2.1498    1.8450   -1.7375 HC        1 <0>        0.04805
     16 H4         -0.6865    1.8122   -0.8049 HC        1 <0>        0.04805
     17 H5         -1.5769    2.1770    1.2067 HC        1 <0>        0.04114
     18 H6         -2.8410    1.2252    1.9339 HC        1 <0>        0.04114
     19 H7         -1.7472   -0.3686   -2.6591 HC        1 <0>        0.03498
     20 H8         -0.4173    0.7211   -2.9768 HC        1 <0>        0.03498
     21 H9         -0.3841    1.0793    2.8145 HC        1 <0>        0.04931
     22 H10        -1.4440   -0.2990    2.8561 HC        1 <0>        0.04931
     23 H11        -0.5161   -1.6342   -1.0765 HC        1 <0>        0.04095
     24 H12         0.4751   -1.4278   -2.4921 HC        1 <0>        0.04095
     25 H13        -0.3990   -1.3466    0.9569 H2        1 <0>        0.03205
     26 H14         2.9935   -1.1993    0.2039 HC        1 <0>        0.04520
     27 H15         2.5596   -1.9924   -1.3226 HC        1 <0>        0.04520
     28 H16         1.6097   -2.3078    0.1423 HC        1 <0>        0.04520
     29 H17         2.8946    0.9958   -0.9022 HC        1 <0>        0.04520
     30 H18         1.4441    1.4959   -1.7929 HC        1 <0>        0.04520
     31 H19         2.4715    0.1967   -2.4287 HC        1 <0>        0.04520
     32 H20         0.5434   -1.5617    2.9783 HO        1 <0>        0.40134
@<TRIPOS>BOND
     1    1    2 1
     2    1    3 1
     3    2    4 1
     4    3    5 1
     5    4    6 1
     6    5    7 1
     7    6    8 1
     8    7   11 1
     9    7   12 1
    10    8    9 1
    11    8   10 1
    12    8   11 1
    13    1   13 1
    14    1   14 1
    15    2   15 1
    16    2   16 1
    17    3   17 1
    18    3   18 1
    19    4   19 1
    20    4   20 1
    21    5   21 1
    22    5   22 1
    23    6   23 1
    24    6   24 1
    25    7   25 1
    26    9   26 1
    27    9   27 1
    28    9   28 1
    29   10   29 1
    30   10   30 1
    31   10   31 1
    32   12   32 1
@<TRIPOS>SUBSTRUCTURE
     1 <0>         1 GROUP 0 A     ****
