@<TRIPOS>MOLECULE
AlkEthOH_r866
   25    25     1     0     0
SMALL
USER_CHARGES

@<TRIPOS>ATOM
      1 C1         -1.1397    1.1795   -1.1391 CT        1 <0>       -0.07428
      2 C2         -1.7464   -0.1983   -0.9020 CT        1 <0>       -0.06820
      3 C3          0.3630    1.1975   -1.4080 CT        1 <0>       -0.07243
      4 C4         -1.6523   -0.6334    0.5570 CT        1 <0>       -0.11170
      5 C5          0.8372    0.0096    0.8257 CT        1 <0>       -0.07164
      6 C6          1.2303    0.1832   -0.6477 CT        1 <0>       -0.05958
      7 C7         -0.2596   -1.0385    1.0339 CT        1 <0>        0.14399
      8 C8          2.7013    0.6044   -0.7578 CT        1 <0>       -0.09187
      9 O1         -0.3340   -1.3042    2.4380 OH        1 <0>       -0.60480
     10 H1         -1.6355    1.6381   -2.0043 HC        1 <0>        0.03828
     11 H2         -1.3650    1.8366   -0.2895 HC        1 <0>        0.03828
     12 H3         -2.8126   -0.1421   -1.1568 HC        1 <0>        0.04143
     13 H4         -1.3079   -0.9491   -1.5687 HC        1 <0>        0.04143
     14 H5          0.5228    1.0340   -2.4824 HC        1 <0>        0.03711
     15 H6          0.7208    2.2172   -1.2122 HC        1 <0>        0.03711
     16 H7         -2.0524    0.1543    1.2093 HC        1 <0>        0.04332
     17 H8         -2.3241   -1.4889    0.7103 HC        1 <0>        0.04332
     18 H9          1.7155   -0.3155    1.4000 HC        1 <0>        0.05642
     19 H10         0.5445    0.9675    1.2744 HC        1 <0>        0.05642
     20 H11         1.1452   -0.7883   -1.1524 HC        1 <0>        0.04604
     21 H12         0.0342   -1.9766    0.5484 H1        1 <0>        0.03117
     22 H13         2.8404    1.5658   -0.2711 HC        1 <0>        0.03455
     23 H14         2.9773    0.6860   -1.8055 HC        1 <0>        0.03455
     24 H15         3.3285   -0.1399   -0.2750 HC        1 <0>        0.03455
     25 H16        -0.9728   -2.0239    2.5436 HO        1 <0>        0.39653
@<TRIPOS>BOND
     1    1    2 1
     2    1    3 1
     3    2    4 1
     4    3    6 1
     5    4    7 1
     6    5    6 1
     7    5    7 1
     8    6    8 1
     9    7    9 1
    10    1   10 1
    11    1   11 1
    12    2   12 1
    13    2   13 1
    14    3   14 1
    15    3   15 1
    16    4   16 1
    17    4   17 1
    18    5   18 1
    19    5   19 1
    20    6   20 1
    21    7   21 1
    22    8   22 1
    23    8   23 1
    24    8   24 1
    25    9   25 1
@<TRIPOS>SUBSTRUCTURE
     1 <0>         1 GROUP 0 A     ****
