@<TRIPOS>MOLECULE
AlkEthOH_r689
   22    22     1     0     0
SMALL
USER_CHARGES

@<TRIPOS>ATOM
      1 C1          0.3209   -1.5685    1.4984 CT        1 <0>       -0.10679
      2 C2          1.1264   -0.2772    1.6311 CT        1 <0>       -0.13512
      3 C3         -0.0408   -1.9284    0.0627 CT        1 <0>        0.14996
      4 C4          0.4797    0.9311    0.9590 CT        1 <0>        0.34460
      5 C5         -0.6200    0.1474   -1.0273 CT        1 <0>        0.54501
      6 C6         -0.2645   -0.1550   -2.4853 CT        1 <0>       -0.09415
      7 O1         -1.0670   -1.0661   -0.4164 OS        1 <0>       -0.49866
      8 O2          0.5367    0.7627   -0.4530 OS        1 <0>       -0.47829
      9 O3          1.2387    2.0804    1.3324 OH        1 <0>       -0.57931
     10 O4         -1.7100    1.0738   -1.1018 OH        1 <0>       -0.61043
     11 H1          0.9039   -2.3863    1.9378 HC        1 <0>        0.05732
     12 H2         -0.5982   -1.4683    2.0890 HC        1 <0>        0.05732
     13 H3          1.2880   -0.0658    2.6955 HC        1 <0>        0.05962
     14 H4          2.1232   -0.4382    1.1994 HC        1 <0>        0.05962
     15 H5          0.8357   -1.9340   -0.5937 H1        1 <0>        0.05358
     16 H6         -0.4575   -2.9413    0.0544 H1        1 <0>        0.05358
     17 H7         -0.5442    1.0780    1.3207 H2        1 <0>        0.09443
     18 H8          0.0793    0.7538   -2.9738 HC        1 <0>        0.06157
     19 H9         -1.1423   -0.5323   -3.0048 HC        1 <0>        0.06157
     20 H10         0.5241   -0.9031   -2.5216 HC        1 <0>        0.06157
     21 H11         1.1941    2.1365    2.2990 HO        1 <0>        0.41008
     22 H12        -2.4176    0.6185   -1.5798 HO        1 <0>        0.43292
@<TRIPOS>BOND
     1    1    2 1
     2    1    3 1
     3    2    4 1
     4    3    7 1
     5    4    8 1
     6    4    9 1
     7    5    6 1
     8    5    7 1
     9    5    8 1
    10    5   10 1
    11    1   11 1
    12    1   12 1
    13    2   13 1
    14    2   14 1
    15    3   15 1
    16    3   16 1
    17    4   17 1
    18    6   18 1
    19    6   19 1
    20    6   20 1
    21    9   21 1
    22   10   22 1
@<TRIPOS>SUBSTRUCTURE
     1 <0>         1 GROUP 0 A     ****
