@<TRIPOS>MOLECULE
AlkEthOH_r727
   28    28     1     0     0
SMALL
USER_CHARGES

@<TRIPOS>ATOM
      1 C1          2.2978    0.2197    0.9398 CT        1 <0>        0.10998
      2 C2          1.9226   -0.9476    0.0381 CT        1 <0>        0.10657
      3 C3          0.2462    1.4514    0.8445 CT        1 <0>        0.08233
      4 C4         -1.0632    0.6713    0.6580 CT        1 <0>        0.33830
      5 C5         -0.1695   -0.7711   -1.1662 CT        1 <0>        0.36083
      6 C6         -1.7073    0.4018    2.0252 CT        1 <0>       -0.11346
      7 C7         -0.3123   -2.2510   -1.5577 CT        1 <0>       -0.10192
      8 C8         -0.7657    0.0659   -2.3031 CT        1 <0>       -0.10192
      9 O1          1.1706    0.7271    1.6518 OS        1 <0>       -0.40748
     10 O2          1.2259   -0.4496   -1.1017 OS        1 <0>       -0.46270
     11 O3         -0.8891   -0.6170    0.0617 OS        1 <0>       -0.43559
     12 O4         -1.9560    1.4992   -0.0904 OH        1 <0>       -0.62111
     13 H1          3.0113   -0.1283    1.6935 H1        1 <0>        0.05437
     14 H2          2.7738    1.0320    0.3783 H1        1 <0>        0.05437
     15 H3          2.8359   -1.4247   -0.3311 H1        1 <0>        0.05829
     16 H4          1.3444   -1.6949    0.5907 H1        1 <0>        0.05829
     17 H5          0.6842    1.7572   -0.1127 H1        1 <0>        0.06093
     18 H6          0.0303    2.3918    1.3673 H1        1 <0>        0.06093
     19 H7         -2.6325   -0.1500    1.8862 HC        1 <0>        0.05559
     20 H8         -1.9189    1.3466    2.5173 HC        1 <0>        0.05559
     21 H9         -1.0254   -0.1815    2.6371 HC        1 <0>        0.05559
     22 H10         0.1022   -2.8723   -0.7701 HC        1 <0>        0.05391
     23 H11         0.2242   -2.4306   -2.4840 HC        1 <0>        0.05391
     24 H12        -1.3631   -2.4867   -1.6932 HC        1 <0>        0.05391
     25 H13        -0.6819    1.1221   -2.0599 HC        1 <0>        0.05391
     26 H14        -1.8135   -0.1920   -2.4340 HC        1 <0>        0.05391
     27 H15        -0.2263   -0.1360   -3.2250 HC        1 <0>        0.05391
     28 H16        -2.0863    2.3029    0.4344 HO        1 <0>        0.40876
@<TRIPOS>BOND
     1    1    2 1
     2    1    9 1
     3    2   10 1
     4    3    4 1
     5    3    9 1
     6    4    6 1
     7    4   11 1
     8    4   12 1
     9    5    7 1
    10    5    8 1
    11    5   10 1
    12    5   11 1
    13    1   13 1
    14    1   14 1
    15    2   15 1
    16    2   16 1
    17    3   17 1
    18    3   18 1
    19    6   19 1
    20    6   20 1
    21    6   21 1
    22    7   22 1
    23    7   23 1
    24    7   24 1
    25    8   25 1
    26    8   26 1
    27    8   27 1
    28   12   28 1
@<TRIPOS>SUBSTRUCTURE
     1 <0>         1 GROUP 0 A     ****
