@<TRIPOS>MOLECULE
AlkEthOH_r504
   24    24     1     0     0
SMALL
USER_CHARGES

@<TRIPOS>ATOM
      1 C1         -1.2816   -1.0602   -0.5597 CT        1 <0>       -0.11067
      2 C2          0.1194   -1.4440   -0.0617 CT        1 <0>       -0.09290
      3 C3         -1.2739   -0.2922   -1.8829 CT        1 <0>        0.13830
      4 C4          0.8962    0.9427    0.6200 CT        1 <0>        0.15029
      5 C5         -0.4911    1.8228   -1.1010 CT        1 <0>        0.31766
      6 C6          0.7231   -0.5305    1.0297 CT        1 <0>        0.13242
      7 C7          2.0823   -1.0973    1.4628 CT        1 <0>       -0.12602
      8 O1         -0.2708    0.7122   -1.9638 OS        1 <0>       -0.45144
      9 O2         -0.3600    1.5310    0.2868 OS        1 <0>       -0.43374
     10 O3         -0.1436   -0.5846    2.1696 OH        1 <0>       -0.58330
     11 H1         -1.8683   -1.9746   -0.7162 HC        1 <0>        0.06038
     12 H2         -1.8247   -0.4933    0.2038 HC        1 <0>        0.06038
     13 H3          0.0266   -2.4506    0.3699 HC        1 <0>        0.04531
     14 H4          0.8122   -1.5354   -0.9074 HC        1 <0>        0.04531
     15 H5         -1.0681   -0.9985   -2.6953 H1        1 <0>        0.04453
     16 H6         -2.2597    0.1417   -2.0863 H1        1 <0>        0.04453
     17 H7          1.2771    1.5170    1.4726 H1        1 <0>        0.05597
     18 H8          1.6249    1.0484   -0.1936 H1        1 <0>        0.05597
     19 H9          0.2310    2.6035   -1.3642 H2        1 <0>        0.06154
     20 H10        -1.4904    2.2368   -1.2748 H2        1 <0>        0.06154
     21 H11         2.5119   -0.4595    2.2300 HC        1 <0>        0.04334
     22 H12         2.7486   -1.1329    0.6058 HC        1 <0>        0.04334
     23 H13         1.9463   -2.0996    1.8586 HC        1 <0>        0.04334
     24 H14        -0.1661   -1.5116    2.4459 HO        1 <0>        0.39392
@<TRIPOS>BOND
     1    1    2 1
     2    1    3 1
     3    2    6 1
     4    3    8 1
     5    4    6 1
     6    4    9 1
     7    5    8 1
     8    5    9 1
     9    6    7 1
    10    6   10 1
    11    1   11 1
    12    1   12 1
    13    2   13 1
    14    2   14 1
    15    3   15 1
    16    3   16 1
    17    4   17 1
    18    4   18 1
    19    5   19 1
    20    5   20 1
    21    7   21 1
    22    7   22 1
    23    7   23 1
    24   10   24 1
@<TRIPOS>SUBSTRUCTURE
     1 <0>         1 GROUP 0 A     ****
