@<TRIPOS>MOLECULE
AlkEthOH_r682
   18    18     1     0     0
SMALL
USER_CHARGES

@<TRIPOS>ATOM
      1 C1          1.1270    0.6474   -0.9348 CT        1 <0>        0.11555
      2 C2          0.9470   -0.8361   -0.7270 CT        1 <0>        0.31344
      3 C3         -0.4343    0.3077    0.6758 CT        1 <0>        0.35379
      4 C4         -0.0786    0.9329    2.0198 CT        1 <0>       -0.10991
      5 C5         -1.9284    0.0269    0.5787 CT        1 <0>       -0.10991
      6 O1         -0.0646    1.2084   -0.3786 OS        1 <0>       -0.43759
      7 O2          0.2924   -0.9229    0.5380 OS        1 <0>       -0.47559
      8 O3          0.1396   -1.3642   -1.7720 OH        1 <0>       -0.61587
      9 H1          1.9769    1.0344   -0.3626 H1        1 <0>        0.07161
     10 H2          1.2201    0.9430   -1.9830 H1        1 <0>        0.07161
     11 H3          1.9011   -1.3713   -0.7098 H2        1 <0>        0.07620
     12 H4          0.9930    1.1253    2.0686 HC        1 <0>        0.05321
     13 H5         -0.3543    0.2571    2.8290 HC        1 <0>        0.05321
     14 H6         -0.6138    1.8738    2.1457 HC        1 <0>        0.05321
     15 H7         -2.1621   -0.4192   -0.3881 HC        1 <0>        0.05321
     16 H8         -2.4900    0.9552    0.6845 HC        1 <0>        0.05321
     17 H9         -2.2308   -0.6614    1.3681 HC        1 <0>        0.05321
     18 H10         0.0491   -2.3154   -1.6012 HO        1 <0>        0.42741
@<TRIPOS>BOND
     1    1    2 1
     2    1    6 1
     3    2    7 1
     4    2    8 1
     5    3    4 1
     6    3    5 1
     7    3    6 1
     8    3    7 1
     9    1    9 1
    10    1   10 1
    11    2   11 1
    12    4   12 1
    13    4   13 1
    14    4   14 1
    15    5   15 1
    16    5   16 1
    17    5   17 1
    18    8   18 1
@<TRIPOS>SUBSTRUCTURE
     1 <0>         1 GROUP 0 A     ****
