@<TRIPOS>MOLECULE
AlkEthOH_r576
   25    25     1     0     0
SMALL
USER_CHARGES

@<TRIPOS>ATOM
      1 C1         -0.9709    0.8323   -1.0658 CT        1 <0>       -0.09697
      2 C2         -0.1748   -0.2760    1.1708 CT        1 <0>       -0.17090
      3 C3         -0.7371   -0.4293   -1.9052 CT        1 <0>        0.14135
      4 C4          1.5400   -0.8242   -1.2529 CT        1 <0>        0.32582
      5 C5          1.3053    0.0862    0.9743 CT        1 <0>        0.35582
      6 C6         -1.2126    0.6069    0.4441 CT        1 <0>        0.17262
      7 C7         -1.3330    1.9675    1.1448 CT        1 <0>       -0.13031
      8 O1          0.2163   -1.3372   -1.3670 OS        1 <0>       -0.44896
      9 O2          1.6998    0.2920   -0.3806 OS        1 <0>       -0.44608
     10 O3          2.1417   -0.8578    1.6419 OH        1 <0>       -0.62412
     11 O4         -2.4747   -0.0605    0.5956 OH        1 <0>       -0.59904
     12 H1         -0.1326    1.5234   -1.2095 HC        1 <0>        0.06462
     13 H2         -1.8441    1.3424   -1.4955 HC        1 <0>        0.06462
     14 H3         -0.3401   -1.3303    0.9124 HC        1 <0>        0.06607
     15 H4         -0.3882   -0.2729    2.2501 HC        1 <0>        0.06607
     16 H5         -1.6802   -0.9804   -1.9893 H1        1 <0>        0.05243
     17 H6         -0.4402   -0.1552   -2.9243 H1        1 <0>        0.05243
     18 H7          2.1887   -1.6383   -0.9129 H2        1 <0>        0.07264
     19 H8          1.8936   -0.5278   -2.2464 H2        1 <0>        0.07264
     20 H9          1.4757    1.0622    1.4762 H2        1 <0>        0.06710
     21 H10        -1.5030    1.8134    2.2064 HC        1 <0>        0.04423
     22 H11        -2.1663    2.5199    0.7204 HC        1 <0>        0.04423
     23 H12        -0.4146    2.5298    1.0022 HC        1 <0>        0.04423
     24 H13         1.9042   -0.8193    2.5808 HO        1 <0>        0.41296
     25 H14        -2.5965   -0.1866    1.5465 HO        1 <0>        0.39650
@<TRIPOS>BOND
     1    1    3 1
     2    1    6 1
     3    2    5 1
     4    2    6 1
     5    3    8 1
     6    4    8 1
     7    4    9 1
     8    5    9 1
     9    5   10 1
    10    6    7 1
    11    6   11 1
    12    1   12 1
    13    1   13 1
    14    2   14 1
    15    2   15 1
    16    3   16 1
    17    3   17 1
    18    4   18 1
    19    4   19 1
    20    5   20 1
    21    7   21 1
    22    7   22 1
    23    7   23 1
    24   10   24 1
    25   11   25 1
@<TRIPOS>SUBSTRUCTURE
     1 <0>         1 GROUP 0 A     ****
