@<TRIPOS>MOLECULE
AlkEthOH_r438
   33    33     1     0     0
SMALL
USER_CHARGES

@<TRIPOS>ATOM
      1 C1         -0.2309    2.3882    0.1608 CT        1 <0>       -0.06286
      2 C2         -0.4474    1.9732   -1.2970 CT        1 <0>       -0.11699
      3 C3          0.1846    1.2988    1.1641 CT        1 <0>       -0.10298
      4 C4          0.8275    1.5420   -2.0165 CT        1 <0>        0.13703
      5 C5          0.7616   -0.8276   -1.6756 CT        1 <0>        0.07951
      6 C6         -0.7519    0.0770    1.3208 CT        1 <0>        0.19075
      7 C7          0.3226   -1.4660   -0.3492 CT        1 <0>        0.34591
      8 C8         -0.3675   -0.7330    2.5736 CT        1 <0>       -0.10048
      9 C9         -2.2076    0.5405    1.5322 CT        1 <0>       -0.10048
     10 C10        -0.1832   -2.8849   -0.6394 CT        1 <0>       -0.10887
     11 O1          1.4378    0.4040   -1.4258 OS        1 <0>       -0.42943
     12 O2         -0.8121   -0.7551    0.1592 OS        1 <0>       -0.45190
     13 O3          1.4664   -1.5573    0.4929 OH        1 <0>       -0.61098
     14 H1          0.5309    3.1784    0.1879 HC        1 <0>        0.03543
     15 H2         -1.1518    2.8640    0.5200 HC        1 <0>        0.03543
     16 H3         -1.2088    1.1910   -1.3579 HC        1 <0>        0.05671
     17 H4         -0.8578    2.8370   -1.8351 HC        1 <0>        0.05671
     18 H5          1.2012    0.9695    0.9300 HC        1 <0>        0.05503
     19 H6          0.2644    1.7948    2.1419 HC        1 <0>        0.05503
     20 H7          0.6297    1.3503   -3.0778 H1        1 <0>        0.04507
     21 H8          1.5588    2.3567   -1.9746 H1        1 <0>        0.04507
     22 H9          1.4937   -1.4721   -2.1753 H1        1 <0>        0.05690
     23 H10        -0.0908   -0.6921   -2.3523 H1        1 <0>        0.05690
     24 H11        -1.0340   -1.5833    2.6657 HC        1 <0>        0.04354
     25 H12        -0.4581   -0.0992    3.4486 HC        1 <0>        0.04354
     26 H13         0.6558   -1.0777    2.4742 HC        1 <0>        0.04354
     27 H14        -2.8444   -0.3299    1.6393 HC        1 <0>        0.04354
     28 H15        -2.5218    1.1233    0.6742 HC        1 <0>        0.04354
     29 H16        -2.2593    1.1473    2.4288 HC        1 <0>        0.04354
     30 H17        -0.4989   -3.3538    0.2885 HC        1 <0>        0.04981
     31 H18         0.6156   -3.4697   -1.0869 HC        1 <0>        0.04981
     32 H19        -1.0245   -2.8364   -1.3251 HC        1 <0>        0.04981
     33 H20         2.1116   -2.1120    0.0265 HO        1 <0>        0.42282
@<TRIPOS>BOND
     1    1    2 1
     2    1    3 1
     3    2    4 1
     4    3    6 1
     5    4   11 1
     6    5    7 1
     7    5   11 1
     8    6    8 1
     9    6    9 1
    10    6   12 1
    11    7   10 1
    12    7   12 1
    13    7   13 1
    14    1   14 1
    15    1   15 1
    16    2   16 1
    17    2   17 1
    18    3   18 1
    19    3   19 1
    20    4   20 1
    21    4   21 1
    22    5   22 1
    23    5   23 1
    24    8   24 1
    25    8   25 1
    26    8   26 1
    27    9   27 1
    28    9   28 1
    29    9   29 1
    30   10   30 1
    31   10   31 1
    32   10   32 1
    33   13   33 1
@<TRIPOS>SUBSTRUCTURE
     1 <0>         1 GROUP 0 A     ****
