@<TRIPOS>MOLECULE
AlkEthOH_r421
   30    30     1     0     0
SMALL
USER_CHARGES

@<TRIPOS>ATOM
      1 C1          0.5381    0.1429   -2.2420 CT        1 <0>       -0.06062
      2 C2         -0.6274    1.0531   -1.8520 CT        1 <0>       -0.11314
      3 C3          1.0662   -0.8158   -1.1667 CT        1 <0>       -0.10041
      4 C4         -1.8431    0.3263   -1.2832 CT        1 <0>        0.15654
      5 C5          1.3991   -0.2019    0.2128 CT        1 <0>        0.18348
      6 C6         -0.9626   -0.0284    0.9791 CT        1 <0>        0.54048
      7 C7          1.8694   -1.3085    1.1702 CT        1 <0>       -0.10037
      8 C8          2.5546    0.8050    0.0656 CT        1 <0>       -0.10037
      9 C9         -1.8380    1.0934    1.5626 CT        1 <0>       -0.11249
     10 O1         -1.5705   -0.5583   -0.2036 OS        1 <0>       -0.48662
     11 O2          0.3317    0.5608    0.7909 OS        1 <0>       -0.44100
     12 O3         -0.9175   -1.0686    1.9663 OH        1 <0>       -0.61260
     13 H1          0.2356   -0.4587   -3.1089 HC        1 <0>        0.03509
     14 H2          1.3631    0.7740   -2.5947 HC        1 <0>        0.03509
     15 H3         -0.2786    1.8153   -1.1481 HC        1 <0>        0.05479
     16 H4         -0.9450    1.6094   -2.7429 HC        1 <0>        0.05479
     17 H5          0.3479   -1.6351   -1.0459 HC        1 <0>        0.05348
     18 H6          1.9682   -1.2990   -1.5676 HC        1 <0>        0.05348
     19 H7         -2.6172    1.0439   -0.9912 H1        1 <0>        0.04375
     20 H8         -2.2851   -0.2870   -2.0768 H1        1 <0>        0.04375
     21 H9          2.1019   -0.8729    2.1372 HC        1 <0>        0.04469
     22 H10         2.7562   -1.7840    0.7627 HC        1 <0>        0.04469
     23 H11         1.0804   -2.0457    1.2834 HC        1 <0>        0.04469
     24 H12         2.7811    1.2301    1.0368 HC        1 <0>        0.04469
     25 H13         2.2557    1.5907   -0.6189 HC        1 <0>        0.04469
     26 H14         3.4263    0.2907   -0.3230 HC        1 <0>        0.04469
     27 H15        -1.3699    1.4902    2.4596 HC        1 <0>        0.05884
     28 H16        -2.8184    0.6964    1.8122 HC        1 <0>        0.05884
     29 H17        -1.9460    1.8885    0.8295 HC        1 <0>        0.05884
     30 H18        -1.8334   -1.3503    2.1042 HO        1 <0>        0.42824
@<TRIPOS>BOND
     1    1    2 1
     2    1    3 1
     3    2    4 1
     4    3    5 1
     5    4   10 1
     6    5    7 1
     7    5    8 1
     8    5   11 1
     9    6    9 1
    10    6   10 1
    11    6   11 1
    12    6   12 1
    13    1   13 1
    14    1   14 1
    15    2   15 1
    16    2   16 1
    17    3   17 1
    18    3   18 1
    19    4   19 1
    20    4   20 1
    21    7   21 1
    22    7   22 1
    23    7   23 1
    24    8   24 1
    25    8   25 1
    26    8   26 1
    27    9   27 1
    28    9   28 1
    29    9   29 1
    30   12   30 1
@<TRIPOS>SUBSTRUCTURE
     1 <0>         1 GROUP 0 A     ****
