@<TRIPOS>MOLECULE
AlkEthOH_r867
   28    28     1     0     0
SMALL
USER_CHARGES

@<TRIPOS>ATOM
      1 C1          0.5899    1.9711   -0.9738 CT        1 <0>       -0.07415
      2 C2          1.3367    0.6990   -1.3718 CT        1 <0>       -0.07070
      3 C3         -0.8503    1.7595   -0.5106 CT        1 <0>       -0.10038
      4 C4          1.6202   -0.2194   -0.1818 CT        1 <0>       -0.09859
      5 C5         -0.9951    0.7522    0.6324 CT        1 <0>        0.14563
      6 C6          0.4592   -1.1601    0.2057 CT        1 <0>        0.15578
      7 C7         -2.4052    0.8175    1.2125 CT        1 <0>       -0.09721
      8 C8          0.4190   -2.3629   -0.7519 CT        1 <0>       -0.10156
      9 C9          0.6613   -1.6937    1.6322 CT        1 <0>       -0.10156
     10 O1         -0.8357   -0.5631    0.1070 OS        1 <0>       -0.42073
     11 H1          1.1492    2.4905   -0.1853 HC        1 <0>        0.03588
     12 H2          0.5760    2.6504   -1.8353 HC        1 <0>        0.03588
     13 H3          0.7998    0.1720   -2.1674 HC        1 <0>        0.04488
     14 H4          2.3009    1.0044   -1.7976 HC        1 <0>        0.04488
     15 H5         -1.2493    2.7334   -0.2017 HC        1 <0>        0.04842
     16 H6         -1.4434    1.4250   -1.3715 HC        1 <0>        0.04842
     17 H7          2.5088   -0.8251   -0.4043 HC        1 <0>        0.04345
     18 H8          1.9042    0.4022    0.6776 HC        1 <0>        0.04345
     19 H9         -0.2838    0.9622    1.4385 H1        1 <0>        0.04096
     20 H10        -3.1366    0.6122    0.4319 HC        1 <0>        0.04217
     21 H11        -2.5914    1.8093    1.6224 HC        1 <0>        0.04217
     22 H12        -2.5141    0.0786    2.0053 HC        1 <0>        0.04217
     23 H13        -0.3999   -3.0173   -0.4711 HC        1 <0>        0.04179
     24 H14         1.3573   -2.9041   -0.6871 HC        1 <0>        0.04179
     25 H15         0.2713   -2.0082   -1.7668 HC        1 <0>        0.04179
     26 H16        -0.1621   -2.3529    1.8901 HC        1 <0>        0.04179
     27 H17         0.6914   -0.8604    2.3275 HC        1 <0>        0.04179
     28 H18         1.5965   -2.2431    1.6820 HC        1 <0>        0.04179
@<TRIPOS>BOND
     1    1    2 1
     2    1    3 1
     3    2    4 1
     4    3    5 1
     5    4    6 1
     6    5    7 1
     7    5   10 1
     8    6    8 1
     9    6    9 1
    10    6   10 1
    11    1   11 1
    12    1   12 1
    13    2   13 1
    14    2   14 1
    15    3   15 1
    16    3   16 1
    17    4   17 1
    18    4   18 1
    19    5   19 1
    20    7   20 1
    21    7   21 1
    22    7   22 1
    23    8   23 1
    24    8   24 1
    25    8   25 1
    26    9   26 1
    27    9   27 1
    28    9   28 1
@<TRIPOS>SUBSTRUCTURE
     1 <0>         1 GROUP 0 A     ****
