@<TRIPOS>MOLECULE
AlkEthOH_r500
   24    24     1     0     0
SMALL
USER_CHARGES

@<TRIPOS>ATOM
      1 C1          1.1908    1.0482   -1.1057 CT        1 <0>       -0.08943
      2 C2          1.2699   -0.3849   -0.5720 CT        1 <0>       -0.12358
      3 C3          0.2092    1.9669   -0.3867 CT        1 <0>        0.12631
      4 C4         -0.7321    1.3139    1.7109 CT        1 <0>        0.10382
      5 C5         -0.7795   -0.2027    1.5696 CT        1 <0>        0.10608
      6 C6         -0.0497   -1.1849   -0.5205 CT        1 <0>        0.34792
      7 C7         -0.6133   -1.3880   -1.9289 CT        1 <0>       -0.11418
      8 O1          0.3824    1.8848    1.0259 OS        1 <0>       -0.42068
      9 O2         -1.0940   -0.5532    0.2257 OS        1 <0>       -0.41211
     10 O3          0.2162   -2.5002   -0.0183 OH        1 <0>       -0.62330
     11 H1          2.1954    1.4799   -1.0077 HC        1 <0>        0.04598
     12 H2          0.9643    1.0442   -2.1778 HC        1 <0>        0.04598
     13 H3          1.9964   -0.9409   -1.1809 HC        1 <0>        0.05680
     14 H4          1.7252   -0.3583    0.4260 HC        1 <0>        0.05680
     15 H5          0.4194    3.0018   -0.6790 H1        1 <0>        0.04816
     16 H6         -0.8227    1.7642   -0.6950 H1        1 <0>        0.04816
     17 H7         -1.6604    1.7813    1.3620 H1        1 <0>        0.05392
     18 H8         -0.6144    1.5656    2.7700 H1        1 <0>        0.05392
     19 H9          0.1503   -0.6665    1.9139 H1        1 <0>        0.06125
     20 H10        -1.5901   -0.5893    2.1962 H1        1 <0>        0.06125
     21 H11        -1.5407   -1.9523   -1.8721 HC        1 <0>        0.05276
     22 H12         0.1055   -1.9356   -2.5332 HC        1 <0>        0.05276
     23 H13        -0.8069   -0.4211   -2.3865 HC        1 <0>        0.05276
     24 H14         0.8452   -2.9000   -0.6349 HO        1 <0>        0.40865
@<TRIPOS>BOND
     1    1    2 1
     2    1    3 1
     3    2    6 1
     4    3    8 1
     5    4    5 1
     6    4    8 1
     7    5    9 1
     8    6    7 1
     9    6    9 1
    10    6   10 1
    11    1   11 1
    12    1   12 1
    13    2   13 1
    14    2   14 1
    15    3   15 1
    16    3   16 1
    17    4   17 1
    18    4   18 1
    19    5   19 1
    20    5   20 1
    21    7   21 1
    22    7   22 1
    23    7   23 1
    24   10   24 1
@<TRIPOS>SUBSTRUCTURE
     1 <0>         1 GROUP 0 A     ****
