@<TRIPOS>MOLECULE
AlkEthOH_r552
   28    28     1     0     0
SMALL
USER_CHARGES

@<TRIPOS>ATOM
      1 C1         -0.7886    1.4641   -0.6155 CT        1 <0>       -0.13732
      2 C2          0.6097   -1.8110   -0.8413 CT        1 <0>       -0.13717
      3 C3          0.2491    1.4994   -1.7382 CT        1 <0>        0.13912
      4 C4          0.4266   -0.8682   -2.0308 CT        1 <0>        0.13912
      5 C5         -0.2532    1.1137    0.7890 CT        1 <0>        0.37259
      6 C6         -0.0476   -1.3288    0.4679 CT        1 <0>        0.37259
      7 C7          0.6701    2.2287    1.2914 CT        1 <0>       -0.10609
      8 C8          0.3008   -2.3183    1.5863 CT        1 <0>       -0.10609
      9 O1          1.0992    0.3602   -1.7729 OS        1 <0>       -0.41412
     10 O2          0.5359   -0.0767    0.8494 OS        1 <0>       -0.45747
     11 O3         -1.3394    1.0756    1.7208 OH        1 <0>       -0.62899
     12 O4         -1.4627   -1.3387    0.2940 OH        1 <0>       -0.62899
     13 H1         -1.3068    2.4318   -0.5792 HC        1 <0>        0.06509
     14 H2         -1.5757    0.7538   -0.8893 HC        1 <0>        0.06509
     15 H3          0.2011   -2.7904   -1.1189 HC        1 <0>        0.06509
     16 H4          1.6885   -1.9250   -0.6725 HC        1 <0>        0.06509
     17 H5         -0.2458    1.6121   -2.7102 H1        1 <0>        0.04627
     18 H6          0.8938    2.3758   -1.6145 H1        1 <0>        0.04627
     19 H7          0.9061   -1.3151   -2.9087 H1        1 <0>        0.04627
     20 H8         -0.6310   -0.7320   -2.2817 H1        1 <0>        0.04627
     21 H9          1.0416    1.9732    2.2797 HC        1 <0>        0.05457
     22 H10         0.1159    3.1617    1.3427 HC        1 <0>        0.05457
     23 H11         1.5068    2.3413    0.6076 HC        1 <0>        0.05457
     24 H12        -0.1563   -1.9911    2.5165 HC        1 <0>        0.05457
     25 H13         1.3797   -2.3618    1.7099 HC        1 <0>        0.05457
     26 H14        -0.0733   -3.3055    1.3277 HC        1 <0>        0.05457
     27 H15        -1.7341    1.9590    1.7094 HO        1 <0>        0.40998
     28 H16        -1.7089   -2.2543    0.0913 HO        1 <0>        0.40998
@<TRIPOS>BOND
     1    1    3 1
     2    1    5 1
     3    2    4 1
     4    2    6 1
     5    3    9 1
     6    4    9 1
     7    5    7 1
     8    5   10 1
     9    5   11 1
    10    6    8 1
    11    6   10 1
    12    6   12 1
    13    1   13 1
    14    1   14 1
    15    2   15 1
    16    2   16 1
    17    3   17 1
    18    3   18 1
    19    4   19 1
    20    4   20 1
    21    7   21 1
    22    7   22 1
    23    7   23 1
    24    8   24 1
    25    8   25 1
    26    8   26 1
    27   11   27 1
    28   12   28 1
@<TRIPOS>SUBSTRUCTURE
     1 <0>         1 GROUP 0 A     ****
