@<TRIPOS>MOLECULE
AlkEthOH_r314
   23    23     1     0     0
SMALL
USER_CHARGES

@<TRIPOS>ATOM
      1 C1          1.1918   -0.2605    1.4221 CT        1 <0>       -0.07210
      2 C2          0.1127    0.7864    1.6713 CT        1 <0>       -0.07508
      3 C3          1.5828   -0.3230   -0.0555 CT        1 <0>       -0.10336
      4 C4         -0.7222    0.4998   -0.6958 CT        1 <0>       -0.10038
      5 C5         -1.1089    0.5592    0.7851 CT        1 <0>        0.14421
      6 C6          0.3681   -0.5453   -0.9717 CT        1 <0>        0.15471
      7 C7          0.7855   -0.5067   -2.4427 CT        1 <0>       -0.12289
      8 O1         -2.0255    1.6287    0.9957 OH        1 <0>       -0.60319
      9 O2         -0.1843   -1.8384   -0.7084 OH        1 <0>       -0.59899
     10 H1          2.0767   -0.0272    2.0251 HC        1 <0>        0.04673
     11 H2          0.8333   -1.2428    1.7530 HC        1 <0>        0.04673
     12 H3         -0.1872    0.7733    2.7261 HC        1 <0>        0.05244
     13 H4          0.5190    1.7904    1.4917 HC        1 <0>        0.05244
     14 H5          2.0912    0.6102   -0.3292 HC        1 <0>        0.04510
     15 H6          2.3054   -1.1384   -0.1847 HC        1 <0>        0.04510
     16 H7         -1.6240    0.2759   -1.2807 HC        1 <0>        0.05573
     17 H8         -0.3893    1.4939   -1.0232 HC        1 <0>        0.05573
     18 H9         -1.6094   -0.3697    1.0825 H1        1 <0>        0.04971
     19 H10        -0.0852   -0.6655   -3.0754 HC        1 <0>        0.04315
     20 H11         1.5170   -1.2882   -2.6370 HC        1 <0>        0.04315
     21 H12         1.2250    0.4614   -2.6740 HC        1 <0>        0.04315
     22 H13        -2.7883    1.4573    0.4215 HO        1 <0>        0.39924
     23 H14         0.5190   -2.4767   -0.8967 HO        1 <0>        0.39867
@<TRIPOS>BOND
     1    1    2 1
     2    1    3 1
     3    2    5 1
     4    3    6 1
     5    4    5 1
     6    4    6 1
     7    5    8 1
     8    6    7 1
     9    6    9 1
    10    1   10 1
    11    1   11 1
    12    2   12 1
    13    2   13 1
    14    3   14 1
    15    3   15 1
    16    4   16 1
    17    4   17 1
    18    5   18 1
    19    7   19 1
    20    7   20 1
    21    7   21 1
    22    8   22 1
    23    9   23 1
@<TRIPOS>SUBSTRUCTURE
     1 <0>         1 GROUP 0 A     ****
