@<TRIPOS>MOLECULE
AlkEthOH_r94
   23    23     1     0     0
SMALL
USER_CHARGES

@<TRIPOS>ATOM
      1 C1          0.9109    0.3746    1.6249 CT        1 <0>       -0.06529
      2 C2          0.9700   -1.1165    1.2954 CT        1 <0>       -0.11258
      3 C3          0.1714    1.2917    0.6438 CT        1 <0>       -0.11217
      4 C4         -1.1668    0.1392   -1.2386 CT        1 <0>       -0.13260
      5 C5          1.6327   -1.4556   -0.0372 CT        1 <0>        0.13278
      6 C6         -0.3134   -1.1145   -1.3835 CT        1 <0>        0.13463
      7 C7         -1.1908    0.7739    0.1613 CT        1 <0>        0.14519
      8 O1          1.0545   -0.7990   -1.1575 OS        1 <0>       -0.42400
      9 O2         -2.0683    1.9062    0.0912 OH        1 <0>       -0.60275
     10 H1          0.4324    0.4752    2.6080 HC        1 <0>        0.04005
     11 H2          1.9327    0.7547    1.7493 HC        1 <0>        0.04005
     12 H3          1.5273   -1.6238    2.0931 HC        1 <0>        0.04676
     13 H4         -0.0420   -1.5324    1.3346 HC        1 <0>        0.04676
     14 H5          0.0389    2.2582    1.1492 HC        1 <0>        0.05444
     15 H6          0.8182    1.5175   -0.2126 HC        1 <0>        0.05444
     16 H7         -0.8192    0.8964   -1.9546 HC        1 <0>        0.05491
     17 H8         -2.1957   -0.0982   -1.5377 HC        1 <0>        0.05491
     18 H9          2.6866   -1.1587   -0.0023 H1        1 <0>        0.04502
     19 H10         1.6128   -2.5386   -0.2068 H1        1 <0>        0.04502
     20 H11        -0.6765   -1.9250   -0.7422 H1        1 <0>        0.04252
     21 H12        -0.3901   -1.4726   -2.4160 H1        1 <0>        0.04252
     22 H13        -1.6294    0.0857    0.8916 H1        1 <0>        0.07319
     23 H14        -1.6646    2.5184   -0.5394 HO        1 <0>        0.39620
@<TRIPOS>BOND
     1    1    2 1
     2    1    3 1
     3    2    5 1
     4    3    7 1
     5    4    6 1
     6    4    7 1
     7    5    8 1
     8    6    8 1
     9    7    9 1
    10    1   10 1
    11    1   11 1
    12    2   12 1
    13    2   13 1
    14    3   14 1
    15    3   15 1
    16    4   16 1
    17    4   17 1
    18    5   18 1
    19    5   19 1
    20    6   20 1
    21    6   21 1
    22    7   22 1
    23    9   23 1
@<TRIPOS>SUBSTRUCTURE
     1 <0>         1 GROUP 0 A     ****
