@<TRIPOS>MOLECULE
AlkEthOH_r889
   36    36     1     0     0
SMALL
USER_CHARGES

@<TRIPOS>ATOM
      1 C1         -2.0785   -0.8367   -1.1130 CT        1 <0>       -0.07437
      2 C2         -2.1268    0.6266   -1.5710 CT        1 <0>       -0.07232
      3 C3         -2.1364   -1.0280    0.4056 CT        1 <0>       -0.07270
      4 C4         -1.0735    1.5643   -0.9686 CT        1 <0>       -0.07542
      5 C5         -0.9849   -1.8592    0.9899 CT        1 <0>       -0.07119
      6 C6          0.3776    1.1321   -1.2204 CT        1 <0>       -0.06505
      7 C7          0.7176    0.0765    1.1363 CT        1 <0>       -0.06349
      8 C8          0.4501   -1.3773    0.6790 CT        1 <0>       -0.06238
      9 C9          1.2808    1.0361    0.0433 CT        1 <0>       -0.04955
     10 C10         1.4474   -2.3343    1.3494 CT        1 <0>       -0.09206
     11 C11         1.4454    2.4383    0.6707 CT        1 <0>       -0.08836
     12 C12         2.6812    0.5615   -0.4011 CT        1 <0>       -0.08836
     13 H1         -2.9473   -1.3438   -1.5538 HC        1 <0>        0.03732
     14 H2         -1.2123   -1.3383   -1.5531 HC        1 <0>        0.03732
     15 H3         -2.0386    0.6492   -2.6646 HC        1 <0>        0.03597
     16 H4         -3.1188    1.0338   -1.3371 HC        1 <0>        0.03597
     17 H5         -2.2185   -0.0742    0.9338 HC        1 <0>        0.03765
     18 H6         -3.0691   -1.5569    0.6445 HC        1 <0>        0.03765
     19 H7         -1.2168    2.5538   -1.4230 HC        1 <0>        0.03780
     20 H8         -1.2811    1.7124    0.0937 HC        1 <0>        0.03780
     21 H9         -1.1220   -1.9075    2.0782 HC        1 <0>        0.03521
     22 H10        -1.0922   -2.8895    0.6252 HC        1 <0>        0.03521
     23 H11         0.4107    0.1914   -1.7794 HC        1 <0>        0.03875
     24 H12         0.8252    1.8672   -1.9049 HC        1 <0>        0.03875
     25 H13        -0.1899    0.5119    1.5667 HC        1 <0>        0.04048
     26 H14         1.4278    0.0662    1.9755 HC        1 <0>        0.04048
     27 H15         0.6158   -1.4769   -0.3966 HC        1 <0>        0.05102
     28 H16         1.3301   -2.2796    2.4274 HC        1 <0>        0.03239
     29 H17         2.4591   -2.0476    1.0787 HC        1 <0>        0.03239
     30 H18         1.2545   -3.3487    1.0135 HC        1 <0>        0.03239
     31 H19         2.0751    2.3589    1.5482 HC        1 <0>        0.03345
     32 H20         0.4692    2.8158    0.9485 HC        1 <0>        0.03345
     33 H21         1.9043    3.0969   -0.0562 HC        1 <0>        0.03345
     34 H22         3.3218    0.4899    0.4695 HC        1 <0>        0.03345
     35 H23         3.0901    1.2783   -1.1027 HC        1 <0>        0.03345
     36 H24         2.5908   -0.4088   -0.8742 HC        1 <0>        0.03345
@<TRIPOS>BOND
     1    1    2 1
     2    1    3 1
     3    2    4 1
     4    3    5 1
     5    4    6 1
     6    5    8 1
     7    6    9 1
     8    7    8 1
     9    7    9 1
    10    8   10 1
    11    9   11 1
    12    9   12 1
    13    1   13 1
    14    1   14 1
    15    2   15 1
    16    2   16 1
    17    3   17 1
    18    3   18 1
    19    4   19 1
    20    4   20 1
    21    5   21 1
    22    5   22 1
    23    6   23 1
    24    6   24 1
    25    7   25 1
    26    7   26 1
    27    8   27 1
    28   10   28 1
    29   10   29 1
    30   10   30 1
    31   11   31 1
    32   11   32 1
    33   11   33 1
    34   12   34 1
    35   12   35 1
    36   12   36 1
@<TRIPOS>SUBSTRUCTURE
     1 <0>         1 GROUP 0 A     ****
