@<TRIPOS>MOLECULE
AlkEthOH_r317
   24    24     1     0     0
SMALL
USER_CHARGES

@<TRIPOS>ATOM
      1 C1          0.1714    0.9464    1.6855 CT        1 <0>       -0.07332
      2 C2          1.3735    0.1970    1.1199 CT        1 <0>       -0.12959
      3 C3         -1.1122    0.1794    1.3863 CT        1 <0>       -0.12959
      4 C4          1.1738   -0.1748   -0.3565 CT        1 <0>        0.35006
      5 C5         -1.2342   -0.1419   -0.1083 CT        1 <0>        0.35006
      6 C6          2.2649   -1.1522   -0.7940 CT        1 <0>       -0.11340
      7 C7         -2.4379   -1.0549   -0.3454 CT        1 <0>       -0.11340
      8 O1         -0.0739   -0.8464   -0.5666 OS        1 <0>       -0.38950
      9 O2          1.3189    0.9698   -1.1986 OH        1 <0>       -0.58343
     10 O3         -1.4444    1.0776   -0.8223 OH        1 <0>       -0.58343
     11 H1          0.2866    1.0776    2.7672 HC        1 <0>        0.05122
     12 H2          0.1190    1.9498    1.2466 HC        1 <0>        0.05122
     13 H3          2.2730    0.8106    1.2483 HC        1 <0>        0.05220
     14 H4          1.5054   -0.7172    1.7131 HC        1 <0>        0.05220
     15 H5         -1.0960   -0.7514    1.9675 HC        1 <0>        0.05220
     16 H6         -1.9692    0.7730    1.7258 HC        1 <0>        0.05220
     17 H7          2.1232   -1.4155   -1.8400 HC        1 <0>        0.05167
     18 H8          2.2141   -2.0537   -0.1872 HC        1 <0>        0.05167
     19 H9          3.2420   -0.6904   -0.6694 HC        1 <0>        0.05167
     20 H10        -2.5228   -1.2817   -1.4060 HC        1 <0>        0.05167
     21 H11        -3.3463   -0.5581   -0.0111 HC        1 <0>        0.05167
     22 H12        -2.3104   -1.9814    0.2104 HC        1 <0>        0.05167
     23 H13         2.2174    1.3011   -1.0540 HO        1 <0>        0.39714
     24 H14        -2.2644    1.4592   -0.4752 HO        1 <0>        0.39714
@<TRIPOS>BOND
     1    1    2 1
     2    1    3 1
     3    2    4 1
     4    3    5 1
     5    4    6 1
     6    4    8 1
     7    4    9 1
     8    5    7 1
     9    5    8 1
    10    5   10 1
    11    1   11 1
    12    1   12 1
    13    2   13 1
    14    2   14 1
    15    3   15 1
    16    3   16 1
    17    6   17 1
    18    6   18 1
    19    6   19 1
    20    7   20 1
    21    7   21 1
    22    7   22 1
    23    9   23 1
    24   10   24 1
@<TRIPOS>SUBSTRUCTURE
     1 <0>         1 GROUP 0 A     ****
