@<TRIPOS>MOLECULE
AlkEthOH_r631
   29    29     1     0     0
SMALL
USER_CHARGES

@<TRIPOS>ATOM
      1 C1          2.3653    0.1479    0.3699 CT        1 <0>       -0.10031
      2 C2          2.3315   -1.0003   -0.6503 CT        1 <0>       -0.10031
      3 C3          1.7642    1.4604   -0.1464 CT        1 <0>        0.13492
      4 C4          1.1439   -1.9543   -0.5043 CT        1 <0>        0.13492
      5 C5         -0.5073    1.3573    0.5878 CT        1 <0>        0.14105
      6 C6         -0.9053   -1.1344    0.4162 CT        1 <0>        0.14105
      7 C7         -1.5837    0.2562    0.4292 CT        1 <0>       -0.07308
      8 C8         -2.5483    0.3298    1.6246 CT        1 <0>       -0.08552
      9 C9         -2.3782    0.4747   -0.8714 CT        1 <0>       -0.08552
     10 O1          0.3972    1.3346   -0.5162 OS        1 <0>       -0.40156
     11 O2         -0.0794   -1.2718   -0.7392 OS        1 <0>       -0.40156
     12 H1          1.8783   -0.1644    1.2995 HC        1 <0>        0.04471
     13 H2          3.4142    0.3507    0.6203 HC        1 <0>        0.04471
     14 H3          2.3515   -0.5906   -1.6672 HC        1 <0>        0.04471
     15 H4          3.2453   -1.5951   -0.5287 HC        1 <0>        0.04471
     16 H5          1.8827    2.2607    0.5939 H1        1 <0>        0.03971
     17 H6          2.3106    1.7759   -1.0421 H1        1 <0>        0.03971
     18 H7          1.2279   -2.7318   -1.2716 H1        1 <0>        0.03971
     19 H8          1.1628   -2.4650    0.4657 H1        1 <0>        0.03971
     20 H9         -0.9739    2.3491    0.6081 H1        1 <0>        0.03031
     21 H10         0.0195    1.2286    1.5418 H1        1 <0>        0.03031
     22 H11        -0.3302   -1.2628    1.3418 H1        1 <0>        0.03031
     23 H12        -1.6566   -1.9317    0.3804 H1        1 <0>        0.03031
     24 H13        -3.3068   -0.4395    1.5211 HC        1 <0>        0.03950
     25 H14        -3.0201    1.3069    1.6450 HC        1 <0>        0.03950
     26 H15        -1.9928    0.1733    2.5437 HC        1 <0>        0.03950
     27 H16        -3.1271   -0.3041   -0.9672 HC        1 <0>        0.03950
     28 H17        -1.6985    0.4347   -1.7157 HC        1 <0>        0.03950
     29 H18        -2.8614    1.4451   -0.8357 HC        1 <0>        0.03950
@<TRIPOS>BOND
     1    1    2 1
     2    1    3 1
     3    2    4 1
     4    3   10 1
     5    4   11 1
     6    5    7 1
     7    5   10 1
     8    6    7 1
     9    6   11 1
    10    7    8 1
    11    7    9 1
    12    1   12 1
    13    1   13 1
    14    2   14 1
    15    2   15 1
    16    3   16 1
    17    3   17 1
    18    4   18 1
    19    4   19 1
    20    5   20 1
    21    5   21 1
    22    6   22 1
    23    6   23 1
    24    8   24 1
    25    8   25 1
    26    8   26 1
    27    9   27 1
    28    9   28 1
    29    9   29 1
@<TRIPOS>SUBSTRUCTURE
     1 <0>         1 GROUP 0 A     ****
