@<TRIPOS>MOLECULE
AlkEthOH_r250
   33    33     1     0     0
SMALL
USER_CHARGES

@<TRIPOS>ATOM
      1 C1          2.2802    1.5173    0.3949 CT        1 <0>       -0.12327
      2 C2         -0.6857   -1.2193    0.1042 CT        1 <0>       -0.08138
      3 C3          2.3064    1.1343   -1.0929 CT        1 <0>        0.13494
      4 C4          1.6490    0.4645    1.3064 CT        1 <0>        0.13895
      5 C5          0.0062    0.6594   -1.5458 CT        1 <0>        0.09878
      6 C6         -0.9774   -0.4807   -1.2359 CT        1 <0>        0.16025
      7 C7         -0.6429   -0.4016    1.4280 CT        1 <0>        0.16551
      8 C8         -0.9435   -1.5123   -2.3772 CT        1 <0>       -0.12500
      9 C9         -2.0171    0.2095    1.7454 CT        1 <0>       -0.10355
     10 C10        -0.2662   -1.3262    2.6008 CT        1 <0>       -0.10355
     11 O1          1.3350    0.1628   -1.4532 OS        1 <0>       -0.42068
     12 O2          0.2466    0.7140    1.3471 OS        1 <0>       -0.43082
     13 O3         -2.2906    0.0781   -1.2219 OH        1 <0>       -0.59608
     14 H1          3.3108    1.7171    0.7112 HC        1 <0>        0.05549
     15 H2          1.7342    2.4636    0.4981 HC        1 <0>        0.05549
     16 H3         -1.4485   -2.0012    0.2312 HC        1 <0>        0.05730
     17 H4          0.2692   -1.7494   -0.0065 HC        1 <0>        0.05730
     18 H5          2.2218    2.0207   -1.7325 H1        1 <0>        0.04411
     19 H6          3.2808    0.6829   -1.3115 H1        1 <0>        0.04411
     20 H7          1.8997   -0.5460    0.9706 H1        1 <0>        0.03793
     21 H8          2.0283    0.5898    2.3260 H1        1 <0>        0.03793
     22 H9         -0.1518    1.0396   -2.5626 H1        1 <0>        0.04650
     23 H10        -0.1697    1.5147   -0.8842 H1        1 <0>        0.04650
     24 H11        -1.1453   -1.0112   -3.3180 HC        1 <0>        0.04538
     25 H12        -1.6989   -2.2697   -2.1968 HC        1 <0>        0.04538
     26 H13         0.0374   -1.9746   -2.4120 HC        1 <0>        0.04538
     27 H14        -1.9549    0.7720    2.6717 HC        1 <0>        0.04516
     28 H15        -2.7483   -0.5858    1.8506 HC        1 <0>        0.04516
     29 H16        -2.3117    0.8708    0.9366 HC        1 <0>        0.04516
     30 H17        -0.2394   -0.7466    3.5170 HC        1 <0>        0.04516
     31 H18         0.7096   -1.7603    2.4129 HC        1 <0>        0.04516
     32 H19        -1.0075   -2.1132    2.6862 HC        1 <0>        0.04516
     33 H20        -2.4098    0.5202   -2.0762 HO        1 <0>        0.39614
@<TRIPOS>BOND
     1    1    3 1
     2    1    4 1
     3    2    6 1
     4    2    7 1
     5    3   11 1
     6    4   12 1
     7    5    6 1
     8    5   11 1
     9    6    8 1
    10    6   13 1
    11    7    9 1
    12    7   10 1
    13    7   12 1
    14    1   14 1
    15    1   15 1
    16    2   16 1
    17    2   17 1
    18    3   18 1
    19    3   19 1
    20    4   20 1
    21    4   21 1
    22    5   22 1
    23    5   23 1
    24    8   24 1
    25    8   25 1
    26    8   26 1
    27    9   27 1
    28    9   28 1
    29    9   29 1
    30   10   30 1
    31   10   31 1
    32   10   32 1
    33   13   33 1
@<TRIPOS>SUBSTRUCTURE
     1 <0>         1 GROUP 0 A     ****
