@<TRIPOS>MOLECULE
AlkEthOH_r754
   19    19     1     0     0
SMALL
USER_CHARGES

@<TRIPOS>ATOM
      1 C1          0.6435   -0.3286    1.2800 CT        1 <0>        0.11568
      2 C2         -0.3970   -0.7642   -0.4488 CT        1 <0>        0.13081
      3 C3         -0.1340    0.5748    0.2994 CT        1 <0>       -0.10792
      4 C4         -0.1318   -0.8812   -1.9368 CT        1 <0>       -0.09997
      5 C5          0.7545    1.6007   -0.3984 CT        1 <0>       -0.08219
      6 C6         -1.3867    1.2163    0.8836 CT        1 <0>       -0.08219
      7 O1          0.6513   -1.4177    0.3210 OS        1 <0>       -0.42474
      8 H1          1.6580   -0.0067    1.5335 H1        1 <0>        0.05381
      9 H2          0.1183   -0.6198    2.1959 H1        1 <0>        0.05381
     10 H3         -1.3670   -1.2201   -0.2057 H1        1 <0>        0.05836
     11 H4          0.8312   -0.4303   -2.1883 HC        1 <0>        0.04636
     12 H5         -0.9135   -0.3701   -2.5039 HC        1 <0>        0.04636
     13 H6         -0.1134   -1.9313   -2.2385 HC        1 <0>        0.04636
     14 H7          0.1565    2.2086   -1.0759 HC        1 <0>        0.04091
     15 H8          1.5306    1.0916   -0.9684 HC        1 <0>        0.04091
     16 H9          1.2233    2.2485    0.3412 HC        1 <0>        0.04091
     17 H10        -1.8744    1.8349    0.1303 HC        1 <0>        0.04091
     18 H11        -1.1221    1.8406    1.7369 HC        1 <0>        0.04091
     19 H12        -2.0822    0.4440    1.2119 HC        1 <0>        0.04091
@<TRIPOS>BOND
     1    1    3 1
     2    1    7 1
     3    2    3 1
     4    2    4 1
     5    2    7 1
     6    3    5 1
     7    3    6 1
     8    1    8 1
     9    1    9 1
    10    2   10 1
    11    4   11 1
    12    4   12 1
    13    4   13 1
    14    5   14 1
    15    5   15 1
    16    5   16 1
    17    6   17 1
    18    6   18 1
    19    6   19 1
@<TRIPOS>SUBSTRUCTURE
     1 <0>         1 GROUP 0 A     ****
