@<TRIPOS>MOLECULE
AlkEthOH_r121
   18    18     1     0     0
SMALL
USER_CHARGES

@<TRIPOS>ATOM
      1 C1         -0.5542    1.1827   -0.8188 CT        1 <0>       -0.10937
      2 C2          1.0894   -0.0783    0.5831 CT        1 <0>       -0.17517
      3 C3         -1.1687   -0.1570   -1.1940 CT        1 <0>        0.13025
      4 C4          0.1181    1.1006    0.5470 CT        1 <0>        0.14738
      5 C5          0.4118   -1.3688    0.1277 CT        1 <0>        0.33823
      6 O1         -0.1933   -1.1992   -1.1568 OS        1 <0>       -0.40311
      7 O2          0.8169    2.3142    0.7941 OH        1 <0>       -0.59601
      8 O3         -0.5201   -1.7942    1.1176 OH        1 <0>       -0.62264
      9 H1          0.1945    1.4679   -1.5695 HC        1 <0>        0.06480
     10 H2         -1.3127    1.9736   -0.8243 HC        1 <0>        0.06480
     11 H3          1.9379    0.1442   -0.0768 HC        1 <0>        0.06008
     12 H4          1.4949   -0.1866    1.5961 HC        1 <0>        0.06008
     13 H5         -2.0036   -0.4118   -0.5311 H1        1 <0>        0.06035
     14 H6         -1.5646   -0.1107   -2.2135 H1        1 <0>        0.06035
     15 H7         -0.6446    0.9874    1.3265 H1        1 <0>        0.04361
     16 H8          1.1725   -2.1509    0.0334 H2        1 <0>        0.06863
     17 H9          1.2302    2.2257    1.6679 HO        1 <0>        0.39882
     18 H10        -0.0126   -1.9396    1.9313 HO        1 <0>        0.40892
@<TRIPOS>BOND
     1    1    3 1
     2    1    4 1
     3    2    4 1
     4    2    5 1
     5    3    6 1
     6    4    7 1
     7    5    6 1
     8    5    8 1
     9    1    9 1
    10    1   10 1
    11    2   11 1
    12    2   12 1
    13    3   13 1
    14    3   14 1
    15    4   15 1
    16    5   16 1
    17    7   17 1
    18    8   18 1
@<TRIPOS>SUBSTRUCTURE
     1 <0>         1 GROUP 0 A     ****
