@<TRIPOS>MOLECULE
AlkEthOH_r1073
   32    32     1     0     0
SMALL
USER_CHARGES

@<TRIPOS>ATOM
      1 C1         -1.4244    0.8278    1.6189 CT        1 <0>       -0.06891
      2 C2         -0.1541    1.1073    2.4316 CT        1 <0>       -0.08949
      3 C3         -1.3297    1.0683    0.1016 CT        1 <0>       -0.09611
      4 C4          0.9924    0.1551    2.1247 CT        1 <0>        0.13022
      5 C5          2.1960   -0.2871    0.1128 CT        1 <0>        0.12229
      6 C6          1.2085   -0.3224   -1.0536 CT        1 <0>        0.11062
      7 C7         -1.2322   -0.1848   -0.8134 CT        1 <0>        0.16005
      8 C8          1.7600   -1.1892   -2.1800 CT        1 <0>       -0.10968
      9 C9         -2.3568   -1.1911   -0.5061 CT        1 <0>       -0.10491
     10 C10        -1.4069    0.2366   -2.2871 CT        1 <0>       -0.10491
     11 O1          1.7605    0.6910    1.0527 OS        1 <0>       -0.42748
     12 O2         -0.0133   -0.9115   -0.6022 OS        1 <0>       -0.42503
     13 H1         -1.7856   -0.1759    1.8558 HC        1 <0>        0.03903
     14 H2         -2.1928    1.5109    2.0062 HC        1 <0>        0.03903
     15 H3          0.1558    2.1481    2.2805 HC        1 <0>        0.04881
     16 H4         -0.4179    0.9972    3.4908 HC        1 <0>        0.04881
     17 H5         -2.2412    1.6101   -0.1880 HC        1 <0>        0.04972
     18 H6         -0.5014    1.7559   -0.1042 HC        1 <0>        0.04972
     19 H7          1.6598    0.0958    2.9913 H1        1 <0>        0.04234
     20 H8          0.6184   -0.8552    1.9237 H1        1 <0>        0.04234
     21 H9          2.3205   -1.2669    0.5894 H1        1 <0>        0.05132
     22 H10         3.1783    0.0382   -0.2462 H1        1 <0>        0.05132
     23 H11         1.0569    0.7010   -1.4097 H1        1 <0>        0.05654
     24 H12         1.9109   -2.2084   -1.8251 HC        1 <0>        0.04208
     25 H13         2.7133   -0.7891   -2.5243 HC        1 <0>        0.04208
     26 H14         1.0595   -1.2044   -3.0146 HC        1 <0>        0.04208
     27 H15        -2.2563   -2.0490   -1.1618 HC        1 <0>        0.04302
     28 H16        -3.3166   -0.7140   -0.6711 HC        1 <0>        0.04302
     29 H17        -2.2780   -1.5086    0.5279 HC        1 <0>        0.04302
     30 H18        -1.3375   -0.6425   -2.9170 HC        1 <0>        0.04302
     31 H19        -0.6253    0.9400   -2.5488 HC        1 <0>        0.04302
     32 H20        -2.3779    0.7019   -2.4092 HC        1 <0>        0.04302
@<TRIPOS>BOND
     1    1    2 1
     2    1    3 1
     3    2    4 1
     4    3    7 1
     5    4   11 1
     6    5    6 1
     7    5   11 1
     8    6    8 1
     9    6   12 1
    10    7    9 1
    11    7   10 1
    12    7   12 1
    13    1   13 1
    14    1   14 1
    15    2   15 1
    16    2   16 1
    17    3   17 1
    18    3   18 1
    19    4   19 1
    20    4   20 1
    21    5   21 1
    22    5   22 1
    23    6   23 1
    24    8   24 1
    25    8   25 1
    26    8   26 1
    27    9   27 1
    28    9   28 1
    29    9   29 1
    30   10   30 1
    31   10   31 1
    32   10   32 1
@<TRIPOS>SUBSTRUCTURE
     1 <0>         1 GROUP 0 A     ****
