@<TRIPOS>MOLECULE
AlkEthOH_r521
   25    25     1     0     0
SMALL
USER_CHARGES

@<TRIPOS>ATOM
      1 C1          0.6641    1.3178   -0.7311 CT        1 <0>       -0.10679
      2 C2          1.0480    0.1631   -1.6377 CT        1 <0>        0.12526
      3 C3         -0.4226    0.7164    0.1593 CT        1 <0>       -0.07196
      4 C4          0.1052   -0.7376    0.3166 CT        1 <0>        0.15433
      5 C5         -0.5691    1.4894    1.4744 CT        1 <0>       -0.08304
      6 C6         -1.7735    0.7865   -0.5880 CT        1 <0>       -0.08304
      7 C7          1.2205   -0.8955    1.3663 CT        1 <0>       -0.09681
      8 C8         -0.9745   -1.7849    0.6029 CT        1 <0>       -0.09681
      9 O1          0.7018   -1.0553   -0.9627 OS        1 <0>       -0.42766
     10 H1          1.5358    1.6206   -0.1386 HC        1 <0>        0.05360
     11 H2          0.3455    2.1982   -1.2987 HC        1 <0>        0.05360
     12 H3          0.4936    0.1920   -2.5811 H1        1 <0>        0.04426
     13 H4          2.1173    0.1597   -1.8688 H1        1 <0>        0.04426
     14 H5         -1.3488    1.0338    2.0795 HC        1 <0>        0.03881
     15 H6         -0.8346    2.5219    1.2619 HC        1 <0>        0.03881
     16 H7          0.3716    1.4634    2.0186 HC        1 <0>        0.03881
     17 H8         -2.5451    0.3608    0.0411 HC        1 <0>        0.03881
     18 H9         -1.6943    0.2236   -1.5096 HC        1 <0>        0.03881
     19 H10        -2.0013    1.8226   -0.8047 HC        1 <0>        0.03881
     20 H11         1.5259   -1.9353    1.4085 HC        1 <0>        0.04299
     21 H12         0.8450   -0.5844    2.3350 HC        1 <0>        0.04299
     22 H13         2.0655   -0.2765    1.0846 HC        1 <0>        0.04299
     23 H14        -0.5156   -2.7663    0.6969 HC        1 <0>        0.04299
     24 H15        -1.6934   -1.8006   -0.2128 HC        1 <0>        0.04299
     25 H16        -1.4869   -1.5371    1.5296 HC        1 <0>        0.04299
@<TRIPOS>BOND
     1    1    2 1
     2    1    3 1
     3    2    9 1
     4    3    4 1
     5    3    5 1
     6    3    6 1
     7    4    7 1
     8    4    8 1
     9    4    9 1
    10    1   10 1
    11    1   11 1
    12    2   12 1
    13    2   13 1
    14    5   14 1
    15    5   15 1
    16    5   16 1
    17    6   17 1
    18    6   18 1
    19    6   19 1
    20    7   20 1
    21    7   21 1
    22    7   22 1
    23    8   23 1
    24    8   24 1
    25    8   25 1
@<TRIPOS>SUBSTRUCTURE
     1 <0>         1 GROUP 0 A     ****
