@<TRIPOS>MOLECULE
AlkEthOH_r1058
   17    17     1     0     0
SMALL
USER_CHARGES

@<TRIPOS>ATOM
      1 C1         -0.9075    0.2479    1.2879 CT        1 <0>        0.11733
      2 C2          0.2292    0.8696    0.4686 CT        1 <0>       -0.09225
      3 C3         -0.0790   -0.2655   -0.5374 CT        1 <0>        0.31685
      4 C4          0.0288    2.3059    0.0279 CT        1 <0>       -0.08294
      5 C5          0.8875   -1.4377   -0.5094 CT        1 <0>       -0.12060
      6 O1         -1.3007   -0.5947    0.1787 OS        1 <0>       -0.45450
      7 O2         -0.3081    0.1371   -1.9031 OH        1 <0>       -0.58378
      8 H1         -0.6118   -0.3552    2.1521 H1        1 <0>        0.05634
      9 H2         -1.7046    0.9390    1.5757 H1        1 <0>        0.05634
     10 H3          1.2060    0.7566    0.9573 HC        1 <0>        0.06675
     11 H4         -0.9424    2.4227   -0.4591 HC        1 <0>        0.04707
     12 H5          0.8091    2.5996   -0.6784 HC        1 <0>        0.04707
     13 H6          0.0688    2.9774    0.8891 HC        1 <0>        0.04707
     14 H7          0.5939   -2.1860   -1.2477 HC        1 <0>        0.05339
     15 H8          0.8886   -1.9017    0.4785 HC        1 <0>        0.05339
     16 H9          1.8991   -1.0975   -0.7382 HC        1 <0>        0.05339
     17 H10        -0.4828   -0.6788   -2.3881 HO        1 <0>        0.41908
@<TRIPOS>BOND
     1    1    2 1
     2    1    6 1
     3    2    3 1
     4    2    4 1
     5    3    5 1
     6    3    6 1
     7    3    7 1
     8    1    8 1
     9    1    9 1
    10    2   10 1
    11    4   11 1
    12    4   12 1
    13    4   13 1
    14    5   14 1
    15    5   15 1
    16    5   16 1
    17    7   17 1
@<TRIPOS>SUBSTRUCTURE
     1 <0>         1 GROUP 0 A     ****
