@<TRIPOS>MOLECULE
AlkEthOH_r390
   37    37     1     0     0
SMALL
USER_CHARGES

@<TRIPOS>ATOM
      1 C1          0.5647    1.0999   -2.6399 CT        1 <0>       -0.07260
      2 C2         -0.7222    1.0226   -1.8165 CT        1 <0>       -0.07016
      3 C3          1.8785    0.6955   -1.9478 CT        1 <0>       -0.08596
      4 C4         -1.0543   -0.3746   -1.2794 CT        1 <0>       -0.07498
      5 C5         -0.6717    0.2103    1.2502 CT        1 <0>       -0.08609
      6 C6          1.9144    0.8809   -0.4313 CT        1 <0>        0.13527
      7 C7         -1.6270   -0.4008    0.1659 CT        1 <0>       -0.03573
      8 C8          0.7966   -0.2791    1.4160 CT        1 <0>        0.16106
      9 C9         -2.0099   -1.8561    0.5032 CT        1 <0>       -0.09022
     10 C10        -2.9434    0.4177    0.2073 CT        1 <0>       -0.09022
     11 C11         1.5287    0.6290    2.4267 CT        1 <0>       -0.10513
     12 C12         0.8610   -1.7074    1.9790 CT        1 <0>       -0.10513
     13 O1          1.4847   -0.3380    0.1667 OS        1 <0>       -0.42315
     14 H1          0.4520    0.5038   -3.5541 HC        1 <0>        0.03458
     15 H2          0.6708    2.1397   -2.9767 HC        1 <0>        0.03458
     16 H3         -0.6722    1.7699   -1.0209 HC        1 <0>        0.03498
     17 H4         -1.5532    1.3495   -2.4557 HC        1 <0>        0.03498
     18 H5          2.0925   -0.3524   -2.1939 HC        1 <0>        0.05006
     19 H6          2.6818    1.2913   -2.3986 HC        1 <0>        0.05006
     20 H7         -1.7953   -0.8191   -1.9596 HC        1 <0>        0.05176
     21 H8         -0.1926   -1.0453   -1.3512 HC        1 <0>        0.05176
     22 H9         -0.6322    1.2931    1.0732 HC        1 <0>        0.03968
     23 H10        -1.1674    0.1155    2.2278 HC        1 <0>        0.03968
     24 H11         2.9497    1.0450   -0.1130 H1        1 <0>        0.03126
     25 H12         1.3265    1.7478   -0.1192 H1        1 <0>        0.03126
     26 H13        -2.4116   -1.8926    1.5092 HC        1 <0>        0.03340
     27 H14        -1.1257   -2.4794    0.4370 HC        1 <0>        0.03340
     28 H15        -2.7561   -2.1990   -0.2041 HC        1 <0>        0.03340
     29 H16        -3.3338    0.3938    1.2151 HC        1 <0>        0.03340
     30 H17        -3.6497   -0.0286   -0.4787 HC        1 <0>        0.03340
     31 H18        -2.7271    1.4353   -0.0868 HC        1 <0>        0.03340
     32 H19         2.5495    0.2830    2.5374 HC        1 <0>        0.04300
     33 H20         1.0170    0.5801    3.3805 HC        1 <0>        0.04300
     34 H21         1.5222    1.6471    2.0559 HC        1 <0>        0.04300
     35 H22         1.8994   -2.0083    2.0784 HC        1 <0>        0.04300
     36 H23         0.3492   -2.3843    1.3019 HC        1 <0>        0.04300
     37 H24         0.3799   -1.7326    2.9519 HC        1 <0>        0.04300
@<TRIPOS>BOND
     1    1    2 1
     2    1    3 1
     3    2    4 1
     4    3    6 1
     5    4    7 1
     6    5    7 1
     7    5    8 1
     8    6   13 1
     9    7    9 1
    10    7   10 1
    11    8   11 1
    12    8   12 1
    13    8   13 1
    14    1   14 1
    15    1   15 1
    16    2   16 1
    17    2   17 1
    18    3   18 1
    19    3   19 1
    20    4   20 1
    21    4   21 1
    22    5   22 1
    23    5   23 1
    24    6   24 1
    25    6   25 1
    26    9   26 1
    27    9   27 1
    28    9   28 1
    29   10   29 1
    30   10   30 1
    31   10   31 1
    32   11   32 1
    33   11   33 1
    34   11   34 1
    35   12   35 1
    36   12   36 1
    37   12   37 1
@<TRIPOS>SUBSTRUCTURE
     1 <0>         1 GROUP 0 A     ****
