@<TRIPOS>MOLECULE
AlkEthOH_r1039
   27    27     1     0     0
SMALL
USER_CHARGES

@<TRIPOS>ATOM
      1 C1          1.6008    0.1939    1.4037 CT        1 <0>       -0.11493
      2 C2          0.5538   -0.6870    2.0844 CT        1 <0>        0.13962
      3 C3         -1.5500   -0.9622    1.0073 CT        1 <0>        0.33273
      4 C4          1.4685    0.2190   -0.1254 CT        1 <0>        0.15213
      5 C5         -0.7706    0.0620   -1.0534 CT        1 <0>        0.35283
      6 C6          2.6143    1.0128   -0.7441 CT        1 <0>       -0.10474
      7 C7         -0.3563   -0.3730   -2.4667 CT        1 <0>       -0.11073
      8 C8         -2.0215    0.9413   -1.1810 CT        1 <0>       -0.11073
      9 O1         -0.7512   -0.1574    1.8707 OS        1 <0>       -0.43521
     10 O2         -1.0429   -1.1361   -0.3140 OS        1 <0>       -0.48114
     11 O3          0.2549    0.8867   -0.4815 OS        1 <0>       -0.43591
     12 H1          1.4892    1.2167    1.7859 HC        1 <0>        0.05693
     13 H2          2.5975   -0.1660    1.6838 HC        1 <0>        0.05693
     14 H3          0.6377   -1.7292    1.7535 H1        1 <0>        0.04237
     15 H4          0.7317   -0.6737    3.1651 H1        1 <0>        0.04237
     16 H5         -1.6647   -1.9565    1.4542 H2        1 <0>        0.06078
     17 H6         -2.5548   -0.5305    0.9652 H2        1 <0>        0.06078
     18 H7          1.5057   -0.8063   -0.5100 H1        1 <0>        0.05363
     19 H8          2.5976    2.0379   -0.3754 HC        1 <0>        0.04151
     20 H9          2.5148    1.0242   -1.8290 HC        1 <0>        0.04151
     21 H10         3.5677    0.5561   -0.4798 HC        1 <0>        0.04151
     22 H11         0.5293   -0.9986   -2.4066 HC        1 <0>        0.05296
     23 H12        -0.1397    0.5065   -3.0658 HC        1 <0>        0.05296
     24 H13        -1.1666   -0.9334   -2.9237 HC        1 <0>        0.05296
     25 H14        -2.3387    1.2650   -0.1937 HC        1 <0>        0.05296
     26 H15        -2.8189    0.3707   -1.6487 HC        1 <0>        0.05296
     27 H16        -1.7922    1.8106   -1.7910 HC        1 <0>        0.05296
@<TRIPOS>BOND
     1    1    2 1
     2    1    4 1
     3    2    9 1
     4    3    9 1
     5    3   10 1
     6    4    6 1
     7    4   11 1
     8    5    7 1
     9    5    8 1
    10    5   10 1
    11    5   11 1
    12    1   12 1
    13    1   13 1
    14    2   14 1
    15    2   15 1
    16    3   16 1
    17    3   17 1
    18    4   18 1
    19    6   19 1
    20    6   20 1
    21    6   21 1
    22    7   22 1
    23    7   23 1
    24    7   24 1
    25    8   25 1
    26    8   26 1
    27    8   27 1
@<TRIPOS>SUBSTRUCTURE
     1 <0>         1 GROUP 0 A     ****
