@<TRIPOS>MOLECULE
AlkEthOH_r471
   28    28     1     0     0
SMALL
USER_CHARGES

@<TRIPOS>ATOM
      1 C1          1.7649   -0.6273    1.0875 CT        1 <0>       -0.11128
      2 C2          0.3716   -1.2452    1.0781 CT        1 <0>       -0.07081
      3 C3          2.0867    0.0192   -0.2480 CT        1 <0>        0.13087
      4 C4         -0.7108   -0.2526    0.5773 CT        1 <0>       -0.06741
      5 C5         -0.2494    0.3839   -0.7883 CT        1 <0>        0.16092
      6 C6         -2.0432   -1.0207    0.4523 CT        1 <0>       -0.08644
      7 C7         -0.9084    0.8346    1.6639 CT        1 <0>       -0.08644
      8 C8         -0.2609   -0.6121   -1.9677 CT        1 <0>       -0.10174
      9 C9         -1.1254    1.5799   -1.2120 CT        1 <0>       -0.10174
     10 O1          1.0748    0.9403   -0.6431 OS        1 <0>       -0.41753
     11 H1          1.8183    0.1294    1.8786 HC        1 <0>        0.04830
     12 H2          2.5143   -1.3896    1.3269 HC        1 <0>        0.04830
     13 H3          0.3876   -2.1375    0.4399 HC        1 <0>        0.04208
     14 H4          0.1291   -1.6039    2.0866 HC        1 <0>        0.04208
     15 H5          3.0242    0.5791   -0.1654 H1        1 <0>        0.04389
     16 H6          2.2399   -0.7323   -1.0293 H1        1 <0>        0.04389
     17 H7         -2.8114   -0.3410    0.1030 HC        1 <0>        0.03702
     18 H8         -2.3151   -1.4169    1.4234 HC        1 <0>        0.03702
     19 H9         -1.9185   -1.8316   -0.2555 HC        1 <0>        0.03702
     20 H10        -1.6617    1.5318    1.3237 HC        1 <0>        0.03702
     21 H11         0.0320    1.3458    1.8177 HC        1 <0>        0.03702
     22 H12        -1.2281    0.3557    2.5793 HC        1 <0>        0.03702
     23 H13         0.0670   -0.1005   -2.8645 HC        1 <0>        0.04349
     24 H14        -1.2683   -0.9864   -2.1033 HC        1 <0>        0.04349
     25 H15         0.4109   -1.4319   -1.7435 HC        1 <0>        0.04349
     26 H16        -0.7590    1.9717   -2.1539 HC        1 <0>        0.04349
     27 H17        -1.0711    2.3472   -0.4483 HC        1 <0>        0.04349
     28 H18        -2.1503    1.2459   -1.3261 HC        1 <0>        0.04349
@<TRIPOS>BOND
     1    1    2 1
     2    1    3 1
     3    2    4 1
     4    3   10 1
     5    4    5 1
     6    4    6 1
     7    4    7 1
     8    5    8 1
     9    5    9 1
    10    5   10 1
    11    1   11 1
    12    1   12 1
    13    2   13 1
    14    2   14 1
    15    3   15 1
    16    3   16 1
    17    6   17 1
    18    6   18 1
    19    6   19 1
    20    7   20 1
    21    7   21 1
    22    7   22 1
    23    8   23 1
    24    8   24 1
    25    8   25 1
    26    9   26 1
    27    9   27 1
    28    9   28 1
@<TRIPOS>SUBSTRUCTURE
     1 <0>         1 GROUP 0 A     ****
