@<TRIPOS>MOLECULE
AlkEthOH_r588
   22    22     1     0     0
SMALL
USER_CHARGES

@<TRIPOS>ATOM
      1 C1         -1.4722   -0.4126   -0.5611 CT        1 <0>       -0.13450
      2 C2         -0.7813   -1.7741   -0.5991 CT        1 <0>        0.13450
      3 C3          1.5633   -1.3693   -0.6375 CT        1 <0>        0.33796
      4 C4          0.7479    0.7835   -0.0041 CT        1 <0>        0.36396
      5 C5         -0.7643    0.6645    0.2905 CT        1 <0>        0.10489
      6 C6         -1.4772    2.0106    0.0924 CT        1 <0>       -0.12025
      7 O1          0.3967   -1.6789   -1.3916 OS        1 <0>       -0.45775
      8 O2          1.4085   -0.4121    0.4029 OS        1 <0>       -0.47222
      9 O3          1.2864    1.8808    0.7348 OH        1 <0>       -0.59733
     10 O4         -0.9078    0.3076    1.6728 OH        1 <0>       -0.58452
     11 H1         -1.5635   -0.0441   -1.5913 HC        1 <0>        0.05748
     12 H2         -2.4863   -0.5643   -0.1700 HC        1 <0>        0.05748
     13 H3         -0.5727   -2.1753    0.3995 H1        1 <0>        0.05960
     14 H4         -1.4434   -2.4856   -1.1038 H1        1 <0>        0.05960
     15 H5          1.9339   -2.2946   -0.1839 H2        1 <0>        0.06322
     16 H6          2.3343   -1.0197   -1.3326 H2        1 <0>        0.06322
     17 H7          0.9207    0.9919   -1.0691 H2        1 <0>        0.08558
     18 H8         -0.9832    2.7717    0.6892 HC        1 <0>        0.04925
     19 H9         -2.5131    1.9196    0.4052 HC        1 <0>        0.04925
     20 H10        -1.4374    2.2890   -0.9566 HC        1 <0>        0.04925
     21 H11         2.2307    1.9174    0.5207 HO        1 <0>        0.43309
     22 H12        -1.8592    0.2829    1.8448 HO        1 <0>        0.39824
@<TRIPOS>BOND
     1    1    2 1
     2    1    5 1
     3    2    7 1
     4    3    7 1
     5    3    8 1
     6    4    5 1
     7    4    8 1
     8    4    9 1
     9    5    6 1
    10    5   10 1
    11    1   11 1
    12    1   12 1
    13    2   13 1
    14    2   14 1
    15    3   15 1
    16    3   16 1
    17    4   17 1
    18    6   18 1
    19    6   19 1
    20    6   20 1
    21    9   21 1
    22   10   22 1
@<TRIPOS>SUBSTRUCTURE
     1 <0>         1 GROUP 0 A     ****
