@<TRIPOS>MOLECULE
AlkEthOH_r235
   32    32     1     0     0
SMALL
USER_CHARGES

@<TRIPOS>ATOM
      1 C1          0.9584   -1.8054   -1.0801 CT        1 <0>       -0.10420
      2 C2          1.2150   -1.3304    0.3539 CT        1 <0>       -0.10225
      3 C3         -1.0486   -0.0083    0.4909 CT        1 <0>       -0.04965
      4 C4          1.1500   -0.7306   -2.1504 CT        1 <0>        0.13260
      5 C5          0.4817    1.3175   -1.1239 CT        1 <0>        0.13234
      6 C6         -0.6087    1.3898   -0.0367 CT        1 <0>       -0.05842
      7 C7         -0.0275   -0.9435    1.1818 CT        1 <0>        0.15888
      8 C8         -1.8683    2.0419   -0.6616 CT        1 <0>       -0.08814
      9 C9         -0.1220    2.3103    1.0950 CT        1 <0>       -0.08814
     10 C10        -0.7646   -2.2213    1.6303 CT        1 <0>       -0.12545
     11 O1          0.1777    0.3050   -2.0788 OS        1 <0>       -0.41886
     12 O2          0.4568   -0.3250    2.3796 OH        1 <0>       -0.59996
     13 H1          1.6698   -2.6112   -1.3010 HC        1 <0>        0.04975
     14 H2         -0.0425   -2.2399   -1.1700 HC        1 <0>        0.04975
     15 H3          1.7207   -2.1494    0.8868 HC        1 <0>        0.04265
     16 H4          1.9630   -0.5303    0.3761 HC        1 <0>        0.04265
     17 H5         -1.8585    0.1736    1.2139 HC        1 <0>        0.05457
     18 H6         -1.5226   -0.5601   -0.3326 HC        1 <0>        0.05457
     19 H7          2.1656   -0.3169   -2.1344 H1        1 <0>        0.04390
     20 H8          1.0244   -1.2040   -3.1307 H1        1 <0>        0.04390
     21 H9          0.5245    2.2671   -1.6720 H1        1 <0>        0.04123
     22 H10         1.4792    1.1933   -0.6913 H1        1 <0>        0.04123
     23 H11        -1.6011    3.0188   -1.0405 HC        1 <0>        0.03797
     24 H12        -2.6273    2.1323    0.1033 HC        1 <0>        0.03797
     25 H13        -2.2215    1.4121   -1.4666 HC        1 <0>        0.03797
     26 H14         0.1717    3.2678    0.6771 HC        1 <0>        0.03797
     27 H15         0.7283    1.8518    1.5894 HC        1 <0>        0.03797
     28 H16        -0.9255    2.4551    1.8100 HC        1 <0>        0.03797
     29 H17        -1.6362   -1.9424    2.2112 HC        1 <0>        0.04195
     30 H18        -0.0959   -2.8222    2.2357 HC        1 <0>        0.04195
     31 H19        -1.0702   -2.7805    0.7535 HC        1 <0>        0.04195
     32 H20         1.0035   -0.9891    2.8230 HO        1 <0>        0.39338
@<TRIPOS>BOND
     1    1    2 1
     2    1    4 1
     3    2    7 1
     4    3    6 1
     5    3    7 1
     6    4   11 1
     7    5    6 1
     8    5   11 1
     9    6    8 1
    10    6    9 1
    11    7   10 1
    12    7   12 1
    13    1   13 1
    14    1   14 1
    15    2   15 1
    16    2   16 1
    17    3   17 1
    18    3   18 1
    19    4   19 1
    20    4   20 1
    21    5   21 1
    22    5   22 1
    23    8   23 1
    24    8   24 1
    25    8   25 1
    26    9   26 1
    27    9   27 1
    28    9   28 1
    29   10   29 1
    30   10   30 1
    31   10   31 1
    32   12   32 1
@<TRIPOS>SUBSTRUCTURE
     1 <0>         1 GROUP 0 A     ****
