@<TRIPOS>MOLECULE
AlkEthOH_r672
   25    25     1     0     0
SMALL
USER_CHARGES

@<TRIPOS>ATOM
      1 C1         -2.3323    0.0617    0.6152 CT        1 <0>       -0.09679
      2 C2         -1.7287   -1.3399    0.7215 CT        1 <0>        0.13388
      3 C3         -1.3741    1.0802   -0.0044 CT        1 <0>        0.14599
      4 C4          1.2319   -0.1754   -0.8840 CT        1 <0>        0.12270
      5 C5          0.1116   -2.2501   -0.4863 CT        1 <0>        0.32039
      6 C6          1.0600    1.1049   -0.0467 CT        1 <0>        0.34073
      7 C7          1.1431    2.3576   -0.9233 CT        1 <0>       -0.14691
      8 O1         -1.2178   -1.7330   -0.5504 OS        1 <0>       -0.46155
      9 O2          1.0872   -1.3131   -0.0272 OS        1 <0>       -0.42407
     10 O3         -0.1483    1.0706    0.7193 OS        1 <0>       -0.45135
     11 O4          2.1673    1.1364    0.8664 OH        1 <0>       -0.58198
     12 H1         -3.2396    0.0268    0.0009 HC        1 <0>        0.05423
     13 H2         -2.6236    0.3893    1.6198 HC        1 <0>        0.05423
     14 H3         -0.9565   -1.3602    1.4999 H1        1 <0>        0.05047
     15 H4         -2.5043   -2.0564    1.0115 H1        1 <0>        0.05047
     16 H5         -1.2409    0.8600   -1.0677 H1        1 <0>        0.03776
     17 H6         -1.8056    2.0840    0.0702 H1        1 <0>        0.03776
     18 H7          0.5254   -0.2142   -1.7202 H1        1 <0>        0.05663
     19 H8          2.2434   -0.2207   -1.3035 H1        1 <0>        0.05663
     20 H9          0.1279   -3.1177    0.1825 H2        1 <0>        0.06357
     21 H10         0.3925   -2.6020   -1.4850 H2        1 <0>        0.06357
     22 H11         1.0185    3.2443   -0.3062 HC        1 <0>        0.05118
     23 H12         0.3582    2.3298   -1.6755 HC        1 <0>        0.05118
     24 H13         2.1121    2.3952   -1.4157 HC        1 <0>        0.05118
     25 H14         2.0567    1.9412    1.3907 HO        1 <0>        0.42010
@<TRIPOS>BOND
     1    1    2 1
     2    1    3 1
     3    2    8 1
     4    3   10 1
     5    4    6 1
     6    4    9 1
     7    5    8 1
     8    5    9 1
     9    6    7 1
    10    6   10 1
    11    6   11 1
    12    1   12 1
    13    1   13 1
    14    2   14 1
    15    2   15 1
    16    3   16 1
    17    3   17 1
    18    4   18 1
    19    4   19 1
    20    5   20 1
    21    5   21 1
    22    7   22 1
    23    7   23 1
    24    7   24 1
    25   11   25 1
@<TRIPOS>SUBSTRUCTURE
     1 <0>         1 GROUP 0 A     ****
