@<TRIPOS>MOLECULE
AlkEthOH_r269
   30    30     1     0     0
SMALL
USER_CHARGES

@<TRIPOS>ATOM
      1 C1          0.8983    0.1589   -2.6238 CT        1 <0>       -0.08646
      2 C2          0.4411   -1.2746   -2.2885 CT        1 <0>       -0.07886
      3 C3         -0.8620    0.6197    1.2445 CT        1 <0>       -0.15083
      4 C4          1.2993    1.0075   -1.4185 CT        1 <0>        0.13877
      5 C5         -0.5280   -1.3962   -1.1113 CT        1 <0>        0.13450
      6 C6          0.1804    1.5701    0.6322 CT        1 <0>        0.34577
      7 C7         -0.4570   -0.8779    1.2787 CT        1 <0>        0.16348
      8 C8         -1.6827   -1.7612    1.5572 CT        1 <0>       -0.10500
      9 C9          0.5581   -1.1026    2.4132 CT        1 <0>       -0.10500
     10 O1          0.1027    1.4418   -0.7824 OS        1 <0>       -0.41325
     11 O2          0.2276   -1.2849    0.0907 OS        1 <0>       -0.42966
     12 O3         -0.1778    2.8994    1.0080 OH        1 <0>       -0.60396
     13 H1          1.7469    0.0898   -3.3145 HC        1 <0>        0.05031
     14 H2          0.0834    0.6604   -3.1610 HC        1 <0>        0.05031
     15 H3         -0.0294   -1.6950   -3.1852 HC        1 <0>        0.04858
     16 H4          1.3342   -1.8772   -2.0797 HC        1 <0>        0.04858
     17 H5         -1.1183    0.9508    2.2598 HC        1 <0>        0.05978
     18 H6         -1.7886    0.7246    0.6632 HC        1 <0>        0.05978
     19 H7          1.9548    0.4384   -0.7502 H1        1 <0>        0.04285
     20 H8          1.8395    1.8998   -1.7511 H1        1 <0>        0.04285
     21 H9         -1.3219   -0.6465   -1.1817 H1        1 <0>        0.03716
     22 H10        -0.9895   -2.3894   -1.1265 H1        1 <0>        0.03716
     23 H11         1.1829    1.3736    1.0265 H2        1 <0>        0.04390
     24 H12        -1.3786   -2.8033    1.5770 HC        1 <0>        0.04433
     25 H13        -2.4194   -1.6123    0.7736 HC        1 <0>        0.04433
     26 H14        -2.1120   -1.4893    2.5167 HC        1 <0>        0.04433
     27 H15         0.8414   -2.1495    2.4373 HC        1 <0>        0.04433
     28 H16         0.1047   -0.8246    3.3588 HC        1 <0>        0.04433
     29 H17         1.4356   -0.4902    2.2342 HC        1 <0>        0.04433
     30 H18        -0.1634    2.9239    1.9768 HO        1 <0>        0.40326
@<TRIPOS>BOND
     1    1    2 1
     2    1    4 1
     3    2    5 1
     4    3    6 1
     5    3    7 1
     6    4   10 1
     7    5   11 1
     8    6   10 1
     9    6   12 1
    10    7    8 1
    11    7    9 1
    12    7   11 1
    13    1   13 1
    14    1   14 1
    15    2   15 1
    16    2   16 1
    17    3   17 1
    18    3   18 1
    19    4   19 1
    20    4   20 1
    21    5   21 1
    22    5   22 1
    23    6   23 1
    24    8   24 1
    25    8   25 1
    26    8   26 1
    27    9   27 1
    28    9   28 1
    29    9   29 1
    30   12   30 1
@<TRIPOS>SUBSTRUCTURE
     1 <0>         1 GROUP 0 A     ****
