@<TRIPOS>MOLECULE
AlkEthOH_r433
   35    35     1     0     0
SMALL
USER_CHARGES

@<TRIPOS>ATOM
      1 C1          0.2729    1.8837   -1.5448 CT        1 <0>       -0.06539
      2 C2          1.5884    1.1050   -1.5616 CT        1 <0>       -0.10978
      3 C3         -0.7741    1.5314   -0.4767 CT        1 <0>       -0.08044
      4 C4         -0.6402   -1.1131   -0.2735 CT        1 <0>       -0.05347
      5 C5          2.3823    1.1996   -0.2622 CT        1 <0>        0.13301
      6 C6          1.6593   -0.7697    0.8768 CT        1 <0>        0.09611
      7 C7         -1.4992    0.1616   -0.5462 CT        1 <0>       -0.02831
      8 C8          0.2207   -1.3052    1.0068 CT        1 <0>        0.14713
      9 C9         -2.6875    0.2154    0.4480 CT        1 <0>       -0.09008
     10 C10        -2.1224   -0.0134   -1.9554 CT        1 <0>       -0.09008
     11 C11         0.3220   -2.8152    1.2965 CT        1 <0>       -0.12626
     12 O1          1.6727    0.6508    0.8389 OS        1 <0>       -0.41505
     13 O2         -0.3948   -0.7308    2.1534 OH        1 <0>       -0.58372
     14 H1          0.5218    2.9458   -1.4137 HC        1 <0>        0.03631
     15 H2         -0.1820    1.8192   -2.5399 HC        1 <0>        0.03631
     16 H3          1.4011    0.0633   -1.8274 HC        1 <0>        0.04397
     17 H4          2.2111    1.5116   -2.3685 HC        1 <0>        0.04397
     18 H5         -0.3701    1.6930    0.5270 HC        1 <0>        0.05447
     19 H6         -1.5476    2.3093   -0.5703 HC        1 <0>        0.05447
     20 H7         -1.3630   -1.9444   -0.2881 HC        1 <0>        0.03933
     21 H8         -0.0065   -1.3247   -1.1428 HC        1 <0>        0.03933
     22 H9          3.3594    0.7123   -0.3618 H1        1 <0>        0.04521
     23 H10         2.5749    2.2530   -0.0307 H1        1 <0>        0.04521
     24 H11         2.2401   -1.0464    1.7647 H1        1 <0>        0.04336
     25 H12         2.1629   -1.2157    0.0102 H1        1 <0>        0.04336
     26 H13        -3.2085   -0.7314    0.4162 HC        1 <0>        0.03517
     27 H14        -3.3498    1.0172    0.1525 HC        1 <0>        0.03517
     28 H15        -2.3000    0.3964    1.4410 HC        1 <0>        0.03517
     29 H16        -2.6251   -0.9697   -1.9949 HC        1 <0>        0.03517
     30 H17        -1.3307    0.0241   -2.6906 HC        1 <0>        0.03517
     31 H18        -2.8281    0.7882   -2.1234 HC        1 <0>        0.03517
     32 H19         0.9202   -2.9663    2.1878 HC        1 <0>        0.04181
     33 H20         0.7897   -3.3081    0.4518 HC        1 <0>        0.04181
     34 H21        -0.6741   -3.2147    1.4500 HC        1 <0>        0.04181
     35 H22         0.2023   -0.8939    2.9005 HO        1 <0>        0.40458
@<TRIPOS>BOND
     1    1    2 1
     2    1    3 1
     3    2    5 1
     4    3    7 1
     5    4    7 1
     6    4    8 1
     7    5   12 1
     8    6    8 1
     9    6   12 1
    10    7    9 1
    11    7   10 1
    12    8   11 1
    13    8   13 1
    14    1   14 1
    15    1   15 1
    16    2   16 1
    17    2   17 1
    18    3   18 1
    19    3   19 1
    20    4   20 1
    21    4   21 1
    22    5   22 1
    23    5   23 1
    24    6   24 1
    25    6   25 1
    26    9   26 1
    27    9   27 1
    28    9   28 1
    29   10   29 1
    30   10   30 1
    31   10   31 1
    32   11   32 1
    33   11   33 1
    34   11   34 1
    35   13   35 1
@<TRIPOS>SUBSTRUCTURE
     1 <0>         1 GROUP 0 A     ****
