@<TRIPOS>MOLECULE
AlkEthOH_r1022
   27    27     1     0     0
SMALL
USER_CHARGES

@<TRIPOS>ATOM
      1 C1          0.2956   -0.9443    1.9097 CT        1 <0>       -0.11976
      2 C2          0.7148    1.3236   -0.7749 CT        1 <0>       -0.16316
      3 C3          0.6280    0.5332    2.1174 CT        1 <0>        0.13033
      4 C4          0.1697    2.1380    0.4008 CT        1 <0>        0.14144
      5 C5          0.3386   -1.3822    0.4389 CT        1 <0>        0.15514
      6 C6         -0.2094    0.2102   -1.3115 CT        1 <0>        0.35769
      7 C7          0.0217   -2.8698    0.3195 CT        1 <0>       -0.10187
      8 C8         -1.4621    0.8152   -1.9527 CT        1 <0>       -0.11656
      9 O1         -0.3433    1.3478    1.4677 OS        1 <0>       -0.40514
     10 O2         -0.6700   -0.6789   -0.2887 OS        1 <0>       -0.39833
     11 O3          0.5164   -0.4929   -2.3263 OH        1 <0>       -0.62829
     12 H1          0.9919   -1.5517    2.4994 HC        1 <0>        0.05862
     13 H2         -0.7160   -1.1202    2.2983 HC        1 <0>        0.05862
     14 H3          0.9766    2.0084   -1.5926 HC        1 <0>        0.05531
     15 H4          1.6726    0.8791   -0.4794 HC        1 <0>        0.05531
     16 H5          0.5699    0.7588    3.1878 H1        1 <0>        0.03737
     17 H6          1.6512    0.7603    1.7971 H1        1 <0>        0.03737
     18 H7          0.9446    2.8099    0.7886 H1        1 <0>        0.04536
     19 H8         -0.6497    2.7762    0.0540 H1        1 <0>        0.04536
     20 H9          1.3394   -1.2147    0.0258 H1        1 <0>        0.05223
     21 H10        -0.9700   -3.0711    0.7228 HC        1 <0>        0.04379
     22 H11         0.7561   -3.4510    0.8757 HC        1 <0>        0.04379
     23 H12         0.0480   -3.1716   -0.7268 HC        1 <0>        0.04379
     24 H13        -2.1018    0.0189   -2.3251 HC        1 <0>        0.05455
     25 H14        -1.1734    1.4612   -2.7782 HC        1 <0>        0.05455
     26 H15        -2.0055    1.3974   -1.2124 HC        1 <0>        0.05455
     27 H16         0.7306    0.1614   -3.0065 HO        1 <0>        0.40794
@<TRIPOS>BOND
     1    1    3 1
     2    1    5 1
     3    2    4 1
     4    2    6 1
     5    3    9 1
     6    4    9 1
     7    5    7 1
     8    5   10 1
     9    6    8 1
    10    6   10 1
    11    6   11 1
    12    1   12 1
    13    1   13 1
    14    2   14 1
    15    2   15 1
    16    3   16 1
    17    3   17 1
    18    4   18 1
    19    4   19 1
    20    5   20 1
    21    7   21 1
    22    7   22 1
    23    7   23 1
    24    8   24 1
    25    8   25 1
    26    8   26 1
    27   11   27 1
@<TRIPOS>SUBSTRUCTURE
     1 <0>         1 GROUP 0 A     ****
