@<TRIPOS>MOLECULE
AlkEthOH_r725
   22    22     1     0     0
SMALL
USER_CHARGES

@<TRIPOS>ATOM
      1 C1          1.4944    0.7526   -1.3264 CT        1 <0>        0.10886
      2 C2          0.3024    1.6210   -0.9512 CT        1 <0>        0.10396
      3 C3          0.9286   -1.0114    0.1807 CT        1 <0>        0.51963
      4 C4         -1.1876    0.1532    0.2592 CT        1 <0>        0.35968
      5 C5         -2.1667   -0.9751   -0.0847 CT        1 <0>       -0.10800
      6 C6         -1.8927    1.1309    1.2066 CT        1 <0>       -0.10800
      7 O1          1.9187   -0.0743   -0.2461 OS        1 <0>       -0.45968
      8 O2         -0.8833    0.8307   -0.9658 OS        1 <0>       -0.46060
      9 O3         -0.0756   -0.3898    0.9789 OS        1 <0>       -0.49584
     10 O4          1.5618   -2.0378    0.9487 OH        1 <0>       -0.57706
     11 H1          1.2745    0.1217   -2.1952 H1        1 <0>        0.05961
     12 H2          2.3438    1.3942   -1.5810 H1        1 <0>        0.05961
     13 H3          0.4447    2.1171    0.0140 H1        1 <0>        0.06555
     14 H4          0.1717    2.3931   -1.7160 H1        1 <0>        0.06555
     15 H5          0.4925   -1.5066   -0.6954 H3        1 <0>        0.10306
     16 H6         -1.6860   -1.6811   -0.7569 HC        1 <0>        0.05479
     17 H7         -3.0464   -0.5582   -0.5679 HC        1 <0>        0.05479
     18 H8         -2.4638   -1.4885    0.8260 HC        1 <0>        0.05479
     19 H9         -1.2147    1.9405    1.4636 HC        1 <0>        0.05479
     20 H10        -2.1908    0.6084    2.1117 HC        1 <0>        0.05479
     21 H11        -2.7736    1.5387    0.7179 HC        1 <0>        0.05479
     22 H12         1.9759   -1.5954    1.7042 HO        1 <0>        0.43493
@<TRIPOS>BOND
     1    1    2 1
     2    1    7 1
     3    2    8 1
     4    3    7 1
     5    3    9 1
     6    3   10 1
     7    4    5 1
     8    4    6 1
     9    4    8 1
    10    4    9 1
    11    1   11 1
    12    1   12 1
    13    2   13 1
    14    2   14 1
    15    3   15 1
    16    5   16 1
    17    5   17 1
    18    5   18 1
    19    6   19 1
    20    6   20 1
    21    6   21 1
    22   10   22 1
@<TRIPOS>SUBSTRUCTURE
     1 <0>         1 GROUP 0 A     ****
