@<TRIPOS>MOLECULE
AlkEthOH_r124
   12    12     1     0     0
SMALL
USER_CHARGES

@<TRIPOS>ATOM
      1 C1         -0.6365    1.1433    0.6428 CT        1 <0>        0.10835
      2 C2         -0.8745   -0.2138    1.2467 CT        1 <0>        0.10835
      3 C3          0.6783   -0.3626   -0.3977 CT        1 <0>        0.50868
      4 O1          0.6476    1.0038    0.0389 OS        1 <0>       -0.44512
      5 O2         -0.3393   -1.1151    0.2783 OS        1 <0>       -0.44512
      6 O3          0.5245   -0.4555   -1.8090 OH        1 <0>       -0.62532
      7 H1         -1.3637    1.3692   -0.1448 H1        1 <0>        0.06426
      8 H2         -0.6346    1.9515    1.3781 H1        1 <0>        0.06426
      9 H3         -0.3084   -0.3434    2.1755 H1        1 <0>        0.06426
     10 H4         -1.9297   -0.4275    1.4339 H1        1 <0>        0.06426
     11 H5          1.6531   -0.7802   -0.1228 H3        1 <0>        0.10871
     12 H6          0.5547   -1.3998   -2.0311 HO        1 <0>        0.42443
@<TRIPOS>BOND
     1    1    2 1
     2    1    4 1
     3    2    5 1
     4    3    4 1
     5    3    5 1
     6    3    6 1
     7    1    7 1
     8    1    8 1
     9    2    9 1
    10    2   10 1
    11    3   11 1
    12    6   12 1
@<TRIPOS>SUBSTRUCTURE
     1 <0>         1 GROUP 0 A     ****
