@<TRIPOS>MOLECULE
AlkEthOH_r405
   29    29     1     0     0
SMALL
USER_CHARGES

@<TRIPOS>ATOM
      1 C1          1.8855    0.6933   -1.1700 CT        1 <0>       -0.07545
      2 C2          1.8747   -0.7745   -0.7303 CT        1 <0>       -0.07480
      3 C3          0.7509    1.1285   -2.1008 CT        1 <0>       -0.10989
      4 C4          0.5393   -1.4331   -0.3715 CT        1 <0>       -0.07370
      5 C5         -0.4604    1.7429   -1.3943 CT        1 <0>        0.13559
      6 C6         -0.6300    0.5981    0.6944 CT        1 <0>        0.33924
      7 C7         -0.2466   -0.8951    0.8556 CT        1 <0>       -0.04699
      8 C8          0.5745   -1.0758    2.1466 CT        1 <0>       -0.08587
      9 C9         -1.5247   -1.7605    0.9852 CT        1 <0>       -0.08587
     10 O1         -1.1802    0.8032   -0.6058 OS        1 <0>       -0.44549
     11 O2         -1.5829    0.9729    1.6908 OH        1 <0>       -0.61436
     12 H1          1.9547    1.3564   -0.3019 HC        1 <0>        0.03661
     13 H2          2.8319    0.8473   -1.7068 HC        1 <0>        0.03661
     14 H3          2.2980   -1.3604   -1.5581 HC        1 <0>        0.03862
     15 H4          2.5835   -0.8971    0.0972 HC        1 <0>        0.03862
     16 H5          1.1482    1.8943   -2.7791 HC        1 <0>        0.05147
     17 H6          0.4364    0.2875   -2.7290 HC        1 <0>        0.05147
     18 H7         -0.1088   -1.4281   -1.2571 HC        1 <0>        0.04874
     19 H8          0.7550   -2.4970   -0.1944 HC        1 <0>        0.04874
     20 H9         -0.1819    2.6209   -0.7990 H1        1 <0>        0.04457
     21 H10        -1.1559    2.0969   -2.1634 H1        1 <0>        0.04457
     22 H11         0.2457    1.2284    0.8722 H2        1 <0>        0.03715
     23 H12         0.0054   -0.6933    2.9866 HC        1 <0>        0.04071
     24 H13         1.5062   -0.5287    2.0550 HC        1 <0>        0.04071
     25 H14         0.7806   -2.1303    2.2924 HC        1 <0>        0.04071
     26 H15        -2.0968   -1.4105    1.8338 HC        1 <0>        0.04071
     27 H16        -1.2327   -2.7916    1.1316 HC        1 <0>        0.04071
     28 H17        -2.1046   -1.6618    0.0775 HC        1 <0>        0.04071
     29 H18        -1.7817    1.9089    1.5395 HO        1 <0>        0.41616
@<TRIPOS>BOND
     1    1    2 1
     2    1    3 1
     3    2    4 1
     4    3    5 1
     5    4    7 1
     6    5   10 1
     7    6    7 1
     8    6   10 1
     9    6   11 1
    10    7    8 1
    11    7    9 1
    12    1   12 1
    13    1   13 1
    14    2   14 1
    15    2   15 1
    16    3   16 1
    17    3   17 1
    18    4   18 1
    19    4   19 1
    20    5   20 1
    21    5   21 1
    22    6   22 1
    23    8   23 1
    24    8   24 1
    25    8   25 1
    26    9   26 1
    27    9   27 1
    28    9   28 1
    29   11   29 1
@<TRIPOS>SUBSTRUCTURE
     1 <0>         1 GROUP 0 A     ****
