@<TRIPOS>MOLECULE
AlkEthOH_r234
   24    24     1     0     0
SMALL
USER_CHARGES

@<TRIPOS>ATOM
      1 C1          0.1431    0.2312    2.1827 CT        1 <0>       -0.10538
      2 C2          0.9620   -0.8966    1.5629 CT        1 <0>       -0.11000
      3 C3          0.0890   -0.7918   -0.8256 CT        1 <0>       -0.16385
      4 C4         -1.1265    0.5733    1.4165 CT        1 <0>        0.13410
      5 C5          1.3171   -0.7147    0.0853 CT        1 <0>        0.14584
      6 C6         -0.7124    0.5155   -0.9627 CT        1 <0>        0.34800
      7 C7         -0.0620    1.4245   -2.0118 CT        1 <0>       -0.11599
      8 O1         -0.7850    1.2854    0.2358 OS        1 <0>       -0.40657
      9 O2          2.1955   -1.7911   -0.2571 OH        1 <0>       -0.59637
     10 O3         -2.0208    0.1645   -1.4260 OH        1 <0>       -0.62159
     11 H1         -0.1220   -0.0578    3.2064 HC        1 <0>        0.05370
     12 H2          0.7770    1.1240    2.2505 HC        1 <0>        0.05370
     13 H3          1.8888   -1.0134    2.1404 HC        1 <0>        0.04636
     14 H4          0.4282   -1.8476    1.6946 HC        1 <0>        0.04636
     15 H5          0.3771   -1.1418   -1.8269 HC        1 <0>        0.06159
     16 H6         -0.5703   -1.5938   -0.4634 HC        1 <0>        0.06159
     17 H7         -1.7478   -0.3056    1.2118 H1        1 <0>        0.05665
     18 H8         -1.7258    1.2558    2.0286 H1        1 <0>        0.05665
     19 H9          1.8730    0.2170   -0.0626 H1        1 <0>        0.08677
     20 H10        -0.6346    2.3440   -2.1011 HC        1 <0>        0.05486
     21 H11        -0.0436    0.9159   -2.9721 HC        1 <0>        0.05486
     22 H12         0.9547    1.6602   -1.7083 HC        1 <0>        0.05486
     23 H13         1.6999   -2.6068   -0.0946 HO        1 <0>        0.39549
     24 H14        -1.8957   -0.2769   -2.2783 HO        1 <0>        0.40837
@<TRIPOS>BOND
     1    1    2 1
     2    1    4 1
     3    2    5 1
     4    3    5 1
     5    3    6 1
     6    4    8 1
     7    5    9 1
     8    6    7 1
     9    6    8 1
    10    6   10 1
    11    1   11 1
    12    1   12 1
    13    2   13 1
    14    2   14 1
    15    3   15 1
    16    3   16 1
    17    4   17 1
    18    4   18 1
    19    5   19 1
    20    7   20 1
    21    7   21 1
    22    7   22 1
    23    9   23 1
    24   10   24 1
@<TRIPOS>SUBSTRUCTURE
     1 <0>         1 GROUP 0 A     ****
