@<TRIPOS>MOLECULE
AlkEthOH_r464
   26    26     1     0     0
SMALL
USER_CHARGES

@<TRIPOS>ATOM
      1 C1         -1.3415    1.1470   -1.0162 CT        1 <0>       -0.10790
      2 C2         -1.3202   -0.3796   -1.0959 CT        1 <0>       -0.06822
      3 C3          0.3316   -0.8583    0.7857 CT        1 <0>       -0.12777
      4 C4         -0.9372    1.7095    0.3384 CT        1 <0>        0.13484
      5 C5          0.9647    0.4886    1.1602 CT        1 <0>        0.33750
      6 C6         -0.0039   -1.0983   -0.7051 CT        1 <0>       -0.04017
      7 C7          1.1549   -0.6975   -1.6330 CT        1 <0>       -0.09202
      8 C8         -0.2447   -2.6162   -0.8890 CT        1 <0>       -0.09202
      9 O1          0.4723    1.6333    0.4787 OS        1 <0>       -0.40520
     10 O2          0.9239    0.6714    2.5762 OH        1 <0>       -0.62329
     11 H1         -0.6892    1.5576   -1.7960 HC        1 <0>        0.05080
     12 H2         -2.3605    1.4818   -1.2455 HC        1 <0>        0.05080
     13 H3         -2.1337   -0.7602   -0.4626 HC        1 <0>        0.03832
     14 H4         -1.5908   -0.6602   -2.1231 HC        1 <0>        0.03832
     15 H5          1.0134   -1.6415    1.1472 HC        1 <0>        0.05268
     16 H6         -0.5795   -1.0070    1.3831 HC        1 <0>        0.05268
     17 H7         -1.1936    2.7743    0.3599 H1        1 <0>        0.05405
     18 H8         -1.4663    1.2354    1.1727 H1        1 <0>        0.05405
     19 H9          2.0422    0.4350    0.8886 H2        1 <0>        0.06112
     20 H10         2.0559   -1.2199   -1.3280 HC        1 <0>        0.03771
     21 H11         1.3141    0.3739   -1.5658 HC        1 <0>        0.03771
     22 H12         0.9057   -0.9660   -2.6547 HC        1 <0>        0.03771
     23 H13         0.6597   -3.1474   -0.6231 HC        1 <0>        0.03771
     24 H14        -0.4975   -2.8061   -1.9237 HC        1 <0>        0.03771
     25 H15        -1.0587   -2.9206   -0.2445 HC        1 <0>        0.03771
     26 H16         1.4260   -0.0626    2.9606 HO        1 <0>        0.40517
@<TRIPOS>BOND
     1    1    2 1
     2    1    4 1
     3    2    6 1
     4    3    5 1
     5    3    6 1
     6    4    9 1
     7    5    9 1
     8    5   10 1
     9    6    7 1
    10    6    8 1
    11    1   11 1
    12    1   12 1
    13    2   13 1
    14    2   14 1
    15    3   15 1
    16    3   16 1
    17    4   17 1
    18    4   18 1
    19    5   19 1
    20    7   20 1
    21    7   21 1
    22    7   22 1
    23    8   23 1
    24    8   24 1
    25    8   25 1
    26   10   26 1
@<TRIPOS>SUBSTRUCTURE
     1 <0>         1 GROUP 0 A     ****
