@<TRIPOS>MOLECULE
AlkEthOH_r398
   30    30     1     0     0
SMALL
USER_CHARGES

@<TRIPOS>ATOM
      1 C1         -1.6924    1.4246   -0.3077 CT        1 <0>       -0.07693
      2 C2         -1.0785    1.0794   -1.6651 CT        1 <0>       -0.06615
      3 C3         -2.5070    0.3017    0.3418 CT        1 <0>       -0.09752
      4 C4          0.0120    0.0021   -1.7118 CT        1 <0>       -0.10325
      5 C5         -1.7503   -0.4561    1.4281 CT        1 <0>        0.14810
      6 C6          0.5413   -1.0757    1.1186 CT        1 <0>        0.52736
      7 C7          1.2714    0.2234   -0.8387 CT        1 <0>        0.17852
      8 C8          2.3588   -0.7936   -1.2367 CT        1 <0>       -0.10900
      9 C9          1.8580    1.6275   -1.0690 CT        1 <0>       -0.10900
     10 O1         -0.8305   -1.3728    0.8494 OS        1 <0>       -0.45676
     11 O2          0.9968    0.1617    0.5688 OS        1 <0>       -0.48854
     12 O3          0.8203   -1.1223    2.5223 OH        1 <0>       -0.62223
     13 H1         -0.9393    1.8201    0.3810 HC        1 <0>        0.04341
     14 H2         -2.3833    2.2595   -0.4891 HC        1 <0>        0.04341
     15 H3         -1.8855    0.7693   -2.3422 HC        1 <0>        0.03469
     16 H4         -0.6786    2.0031   -2.1019 HC        1 <0>        0.03469
     17 H5         -3.3832    0.7601    0.8175 HC        1 <0>        0.04882
     18 H6         -2.8793   -0.3913   -0.4212 HC        1 <0>        0.04882
     19 H7         -0.4428   -0.9678   -1.4872 HC        1 <0>        0.05752
     20 H8          0.3319   -0.0696   -2.7610 HC        1 <0>        0.05752
     21 H9         -1.2756    0.2337    2.1359 H1        1 <0>        0.04626
     22 H10        -2.4687   -1.0563    1.9973 H1        1 <0>        0.04626
     23 H11         1.1124   -1.8997    0.6851 H3        1 <0>        0.10270
     24 H12         3.2373   -0.6333   -0.6219 HC        1 <0>        0.04636
     25 H13         2.6111   -0.6532   -2.2817 HC        1 <0>        0.04636
     26 H14         1.9801   -1.7976   -1.0816 HC        1 <0>        0.04636
     27 H15         2.7371    1.7541   -0.4460 HC        1 <0>        0.04636
     28 H16         1.1141    2.3727   -0.8078 HC        1 <0>        0.04636
     29 H17         2.1314    1.7336   -2.1135 HC        1 <0>        0.04636
     30 H18         1.7602   -0.9116    2.6173 HO        1 <0>        0.43314
@<TRIPOS>BOND
     1    1    2 1
     2    1    3 1
     3    2    4 1
     4    3    5 1
     5    4    7 1
     6    5   10 1
     7    6   10 1
     8    6   11 1
     9    6   12 1
    10    7    8 1
    11    7    9 1
    12    7   11 1
    13    1   13 1
    14    1   14 1
    15    2   15 1
    16    2   16 1
    17    3   17 1
    18    3   18 1
    19    4   19 1
    20    4   20 1
    21    5   21 1
    22    5   22 1
    23    6   23 1
    24    8   24 1
    25    8   25 1
    26    8   26 1
    27    9   27 1
    28    9   28 1
    29    9   29 1
    30   12   30 1
@<TRIPOS>SUBSTRUCTURE
     1 <0>         1 GROUP 0 A     ****
