@<TRIPOS>MOLECULE
AlkEthOH_r76
   17    17     1     0     0
SMALL
USER_CHARGES

@<TRIPOS>ATOM
      1 C1          0.4687   -0.2772   -0.9520 CT        1 <0>       -0.07531
      2 C2          0.8906   -1.7404   -0.9058 CT        1 <0>       -0.11239
      3 C3          1.6796    0.6158   -1.2090 CT        1 <0>       -0.14003
      4 C4          2.0472   -1.9355    0.0642 CT        1 <0>        0.13102
      5 C5          2.8166    0.3052   -0.2364 CT        1 <0>        0.33430
      6 O1          3.1455   -1.0857   -0.2657 OS        1 <0>       -0.40629
      7 O2          2.4660    0.7556    1.0688 OH        1 <0>       -0.62060
      8 H1         -0.2820   -0.1262   -1.7355 HC        1 <0>        0.04603
      9 H2          0.0000    0.0001    0.0000 HC        1 <0>        0.04603
     10 H3          0.0430   -2.3725   -0.6208 HC        1 <0>        0.05015
     11 H4          1.2084   -2.0452   -1.9105 HC        1 <0>        0.05015
     12 H5          2.0274    0.4389   -2.2341 HC        1 <0>        0.05383
     13 H6          1.3798    1.6665   -1.1283 HC        1 <0>        0.05383
     14 H7          1.7352   -1.7481    1.0980 H1        1 <0>        0.05628
     15 H8          2.4021   -2.9699    0.0136 H1        1 <0>        0.05628
     16 H9          3.7073    0.8611   -0.5495 H2        1 <0>        0.07000
     17 H10         2.3210    1.7123    1.0019 HO        1 <0>        0.40672
@<TRIPOS>BOND
     1    1    2 1
     2    1    3 1
     3    2    4 1
     4    3    5 1
     5    4    6 1
     6    5    6 1
     7    5    7 1
     8    1    8 1
     9    1    9 1
    10    2   10 1
    11    2   11 1
    12    3   12 1
    13    3   13 1
    14    4   14 1
    15    4   15 1
    16    5   16 1
    17    7   17 1
@<TRIPOS>SUBSTRUCTURE
     1 <0>         1 GROUP 0 A     ****
