@<TRIPOS>MOLECULE
AlkEthOH_r24
   18    18     1     0     0
SMALL
USER_CHARGES

@<TRIPOS>ATOM
      1 C1         -1.0648   -0.2037    0.1649 CT        1 <0>       -0.07562
      2 C2         -1.4394   -1.5450   -0.4557 CT        1 <0>       -0.14190
      3 C3         -1.3655   -0.2188    1.6596 CT        1 <0>       -0.14190
      4 C4         -0.7951   -2.7047    0.3003 CT        1 <0>        0.33913
      5 C5         -0.7239   -1.4247    2.3419 CT        1 <0>        0.33913
      6 O1         -1.0929   -2.6456    1.6970 OS        1 <0>       -0.39742
      7 O2          0.6043   -2.7271    0.0355 OH        1 <0>       -0.59277
      8 O3          0.6871   -1.2404    2.4072 OH        1 <0>       -0.59277
      9 H1          0.0000   -0.0002    0.0002 HC        1 <0>        0.05095
     10 H2         -1.6241    0.6031   -0.3214 HC        1 <0>        0.05095
     11 H3         -2.5303   -1.6525   -0.4148 HC        1 <0>        0.05563
     12 H4         -1.1367   -1.5559   -1.5087 HC        1 <0>        0.05563
     13 H5         -1.0103    0.7138    2.1117 HC        1 <0>        0.05563
     14 H6         -2.4532   -0.2681    1.7930 HC        1 <0>        0.05563
     15 H7         -1.2133   -3.6426   -0.0817 H2        1 <0>        0.07110
     16 H8         -1.0916   -1.4769    3.3721 H2        1 <0>        0.07110
     17 H9          0.7031   -2.8420   -0.9225 HO        1 <0>        0.39875
     18 H10         0.8373   -0.4321    2.9218 HO        1 <0>        0.39875
@<TRIPOS>BOND
     1    1    2 1
     2    1    3 1
     3    2    4 1
     4    3    5 1
     5    4    6 1
     6    4    7 1
     7    5    6 1
     8    5    8 1
     9    1    9 1
    10    1   10 1
    11    2   11 1
    12    2   12 1
    13    3   13 1
    14    3   14 1
    15    4   15 1
    16    5   16 1
    17    7   17 1
    18    8   18 1
@<TRIPOS>SUBSTRUCTURE
     1 <0>         1 GROUP 0 A     ****
