@<TRIPOS>MOLECULE
AlkEthOH_r1104
   21    21     1     0     0
SMALL
USER_CHARGES

@<TRIPOS>ATOM
      1 C1          0.0175    1.2737    1.5861 CT        1 <0>        0.11230
      2 C2         -1.2722    0.4695    1.4453 CT        1 <0>        0.10420
      3 C3          1.0344    0.8274   -0.5354 CT        1 <0>        0.09937
      4 C4         -1.5857   -0.6262   -0.6515 CT        1 <0>        0.32375
      5 C5          0.7616   -0.5309   -1.1888 CT        1 <0>        0.12551
      6 C6          1.9890   -1.4341   -1.0908 CT        1 <0>       -0.09016
      7 O1          1.1168    0.6904    0.8838 OS        1 <0>       -0.40797
      8 O2         -1.7574    0.5699    0.1076 OS        1 <0>       -0.46393
      9 O3         -0.3040   -1.2397   -0.5562 OS        1 <0>       -0.43559
     10 H1         -0.1189    2.3087    1.2519 H1        1 <0>        0.05244
     11 H2          0.3010    1.3033    2.6432 H1        1 <0>        0.05244
     12 H3         -1.1312   -0.5744    1.7489 H1        1 <0>        0.05797
     13 H4         -2.0359    0.9081    2.0958 H1        1 <0>        0.05797
     14 H5          1.9955    1.2210   -0.8851 H1        1 <0>        0.05328
     15 H6          0.2800    1.5668   -0.8272 H1        1 <0>        0.05328
     16 H7         -2.3254   -1.3546   -0.3025 H2        1 <0>        0.06149
     17 H8         -1.8177   -0.4076   -1.6996 H2        1 <0>        0.06149
     18 H9          0.5239   -0.3900   -2.2501 H1        1 <0>        0.03561
     19 H10         2.2489   -1.5919   -0.0453 HC        1 <0>        0.04885
     20 H11         2.8311   -0.9694   -1.6012 HC        1 <0>        0.04885
     21 H12         1.7775   -2.3962   -1.5548 HC        1 <0>        0.04885
@<TRIPOS>BOND
     1    1    2 1
     2    1    7 1
     3    2    8 1
     4    3    5 1
     5    3    7 1
     6    4    8 1
     7    4    9 1
     8    5    6 1
     9    5    9 1
    10    1   10 1
    11    1   11 1
    12    2   12 1
    13    2   13 1
    14    3   14 1
    15    3   15 1
    16    4   16 1
    17    4   17 1
    18    5   18 1
    19    6   19 1
    20    6   20 1
    21    6   21 1
@<TRIPOS>SUBSTRUCTURE
     1 <0>         1 GROUP 0 A     ****
