@<TRIPOS>MOLECULE
AlkEthOH_r1071
   26    26     1     0     0
SMALL
USER_CHARGES

@<TRIPOS>ATOM
      1 C1          0.8703    1.6753   -0.8066 CT        1 <0>       -0.11218
      2 C2          1.3996    0.2486   -0.6484 CT        1 <0>       -0.09855
      3 C3         -0.4222    1.7826   -1.6067 CT        1 <0>        0.13285
      4 C4         -1.5983    0.3115   -0.1344 CT        1 <0>        0.13033
      5 C5         -0.7477   -0.9053    0.2664 CT        1 <0>       -0.07228
      6 C6          0.7549   -0.5638    0.5026 CT        1 <0>        0.15610
      7 C7         -1.4031   -1.5672    1.4892 CT        1 <0>       -0.08748
      8 C8          1.5775   -1.8505    0.7002 CT        1 <0>       -0.12621
      9 O1         -1.2973    0.6749   -1.4758 OS        1 <0>       -0.42133
     10 O2          0.8663    0.1939    1.7135 OH        1 <0>       -0.59848
     11 H1          0.7276    2.1373    0.1770 HC        1 <0>        0.05107
     12 H2          1.6278    2.2918   -1.3070 HC        1 <0>        0.05107
     13 H3          1.3227   -0.2970   -1.5969 HC        1 <0>        0.04896
     14 H4          2.4722    0.3482   -0.4314 HC        1 <0>        0.04896
     15 H5         -0.9588    2.7015   -1.3431 H1        1 <0>        0.04199
     16 H6         -0.1782    1.8587   -2.6722 H1        1 <0>        0.04199
     17 H7         -2.6583    0.0329   -0.1323 H1        1 <0>        0.05327
     18 H8         -1.4905    1.1537    0.5595 H1        1 <0>        0.05327
     19 H9         -0.7892   -1.6224   -0.5620 HC        1 <0>        0.06332
     20 H10        -1.3768   -0.8787    2.3281 HC        1 <0>        0.03926
     21 H11        -0.8590   -2.4716    1.7433 HC        1 <0>        0.03926
     22 H12        -2.4335   -1.8159    1.2543 HC        1 <0>        0.03926
     23 H13         1.1397   -2.4323    1.5035 HC        1 <0>        0.04265
     24 H14         2.5977   -1.5847    0.9530 HC        1 <0>        0.04265
     25 H15         1.5644   -2.4252   -0.2191 HC        1 <0>        0.04265
     26 H16         1.8133    0.3280    1.8605 HO        1 <0>        0.39760
@<TRIPOS>BOND
     1    1    2 1
     2    1    3 1
     3    2    6 1
     4    3    9 1
     5    4    5 1
     6    4    9 1
     7    5    6 1
     8    5    7 1
     9    6    8 1
    10    6   10 1
    11    1   11 1
    12    1   12 1
    13    2   13 1
    14    2   14 1
    15    3   15 1
    16    3   16 1
    17    4   17 1
    18    4   18 1
    19    5   19 1
    20    7   20 1
    21    7   21 1
    22    7   22 1
    23    8   23 1
    24    8   24 1
    25    8   25 1
    26   10   26 1
@<TRIPOS>SUBSTRUCTURE
     1 <0>         1 GROUP 0 A     ****
