@<TRIPOS>MOLECULE
AlkEthOH_r797
   27    27     1     0     0
SMALL
USER_CHARGES

@<TRIPOS>ATOM
      1 C1          1.4841   -0.4093   -0.0079 CT        1 <0>       -0.13866
      2 C2         -0.7213    0.9229   -0.5109 CT        1 <0>       -0.09363
      3 C3          1.4982   -0.1385    1.4993 CT        1 <0>        0.14854
      4 C4         -0.7671   -0.7439    1.9947 CT        1 <0>        0.32255
      5 C5         -1.6516   -0.2689   -0.1952 CT        1 <0>        0.15964
      6 C6          0.7496    0.6190   -0.8942 CT        1 <0>        0.17336
      7 C7         -2.0545   -1.0267   -1.4573 CT        1 <0>       -0.09143
      8 C8          1.5392    1.9361   -0.9382 CT        1 <0>       -0.12617
      9 O1          0.2435    0.2598    2.0377 OS        1 <0>       -0.45011
     10 O2         -1.0906   -1.2317    0.6964 OS        1 <0>       -0.44791
     11 O3          0.7705    0.0813   -2.2244 OH        1 <0>       -0.60373
     12 H1          2.5248   -0.5034   -0.3492 HC        1 <0>        0.05916
     13 H2          1.0720   -1.4080   -0.1986 HC        1 <0>        0.05916
     14 H3         -1.1879    1.5032   -1.3193 HC        1 <0>        0.06220
     15 H4         -0.7282    1.5961    0.3551 HC        1 <0>        0.06220
     16 H5          1.8676   -1.0172    2.0409 H1        1 <0>        0.04476
     17 H6          2.2008    0.6753    1.7086 H1        1 <0>        0.04476
     18 H7         -0.4442   -1.5951    2.6038 H2        1 <0>        0.06010
     19 H8         -1.6707   -0.3371    2.4613 H2        1 <0>        0.06010
     20 H9         -2.5712    0.1237    0.2577 H1        1 <0>        0.02817
     21 H10        -1.1690   -1.4355   -1.9419 HC        1 <0>        0.04865
     22 H11        -2.5592   -0.3529   -2.1481 HC        1 <0>        0.04865
     23 H12        -2.7281   -1.8427   -1.1996 HC        1 <0>        0.04865
     24 H13         1.0131    2.6505   -1.5640 HC        1 <0>        0.04209
     25 H14         2.5266    1.7502   -1.3495 HC        1 <0>        0.04209
     26 H15         1.6329    2.3334    0.0679 HC        1 <0>        0.04209
     27 H16         1.7038   -0.0142   -2.4586 HO        1 <0>        0.39472
@<TRIPOS>BOND
     1    1    3 1
     2    1    6 1
     3    2    5 1
     4    2    6 1
     5    3    9 1
     6    4    9 1
     7    4   10 1
     8    5    7 1
     9    5   10 1
    10    6    8 1
    11    6   11 1
    12    1   12 1
    13    1   13 1
    14    2   14 1
    15    2   15 1
    16    3   16 1
    17    3   17 1
    18    4   18 1
    19    4   19 1
    20    5   20 1
    21    7   21 1
    22    7   22 1
    23    7   23 1
    24    8   24 1
    25    8   25 1
    26    8   26 1
    27   11   27 1
@<TRIPOS>SUBSTRUCTURE
     1 <0>         1 GROUP 0 A     ****
