@<TRIPOS>MOLECULE
AlkEthOH_r925
   31    31     1     0     0
SMALL
USER_CHARGES

@<TRIPOS>ATOM
      1 C1         -2.1525    0.3430   -0.4922 CT        1 <0>       -0.06931
      2 C2         -2.1900   -1.0557    0.1333 CT        1 <0>       -0.09750
      3 C3         -0.9956    0.5637   -1.4742 CT        1 <0>       -0.07135
      4 C4          0.7775    0.9338    0.4132 CT        1 <0>       -0.09171
      5 C5         -1.0028   -1.3739    1.0339 CT        1 <0>        0.13486
      6 C6          0.1925    1.3893   -0.9409 CT        1 <0>       -0.05663
      7 C7          1.2310   -0.5424    0.5232 CT        1 <0>        0.15767
      8 C8         -0.1825    2.8768   -0.8537 CT        1 <0>       -0.09338
      9 C9          1.8189   -0.8120    1.9197 CT        1 <0>       -0.10302
     10 C10         2.3238   -0.8479   -0.5137 CT        1 <0>       -0.10302
     11 O1          0.1797   -1.4747    0.2514 OS        1 <0>       -0.42127
     12 H1         -3.0909    0.4666   -1.0486 HC        1 <0>        0.03574
     13 H2         -2.1677    1.1049    0.2940 HC        1 <0>        0.03574
     14 H3         -3.1106   -1.1463    0.7220 HC        1 <0>        0.04614
     15 H4         -2.2473   -1.7996   -0.6710 HC        1 <0>        0.04614
     16 H5         -0.6366   -0.3957   -1.8650 HC        1 <0>        0.04673
     17 H6         -1.3958    1.0877   -2.3531 HC        1 <0>        0.04673
     18 H7          1.6435    1.5730    0.6374 HC        1 <0>        0.04300
     19 H8          0.0478    1.1583    1.2002 HC        1 <0>        0.04300
     20 H9         -0.9302   -0.6504    1.8507 H1        1 <0>        0.03736
     21 H10        -1.1638   -2.3559    1.4921 H1        1 <0>        0.03736
     22 H11         0.9882    1.3235   -1.6943 HC        1 <0>        0.04320
     23 H12        -0.9711    3.0067   -0.1189 HC        1 <0>        0.03258
     24 H13        -0.5297    3.2178   -1.8242 HC        1 <0>        0.03258
     25 H14         0.6898    3.4510   -0.5568 HC        1 <0>        0.03258
     26 H15         2.1318   -1.8489    1.9816 HC        1 <0>        0.04263
     27 H16         1.0618   -0.6130    2.6707 HC        1 <0>        0.04263
     28 H17         2.6727   -0.1621    2.0795 HC        1 <0>        0.04263
     29 H18         2.6274   -1.8858   -0.4202 HC        1 <0>        0.04263
     30 H19         3.1774   -0.2012   -0.3369 HC        1 <0>        0.04263
     31 H20         1.9325   -0.6710   -1.5106 HC        1 <0>        0.04263
@<TRIPOS>BOND
     1    1    2 1
     2    1    3 1
     3    2    5 1
     4    3    6 1
     5    4    6 1
     6    4    7 1
     7    5   11 1
     8    6    8 1
     9    7    9 1
    10    7   10 1
    11    7   11 1
    12    1   12 1
    13    1   13 1
    14    2   14 1
    15    2   15 1
    16    3   16 1
    17    3   17 1
    18    4   18 1
    19    4   19 1
    20    5   20 1
    21    5   21 1
    22    6   22 1
    23    8   23 1
    24    8   24 1
    25    8   25 1
    26    9   26 1
    27    9   27 1
    28    9   28 1
    29   10   29 1
    30   10   30 1
    31   10   31 1
@<TRIPOS>SUBSTRUCTURE
     1 <0>         1 GROUP 0 A     ****
