@<TRIPOS>MOLECULE
AlkEthOH_r1060
   14    14     1     0     0
SMALL
USER_CHARGES

@<TRIPOS>ATOM
      1 C1         -0.4384   -1.3464    0.1634 CT        1 <0>        0.11963
      2 C2         -0.1413   -0.1891   -0.7955 CT        1 <0>       -0.11235
      3 C3          0.2713    0.5664    0.4796 CT        1 <0>        0.31338
      4 C4         -1.3152    0.3722   -1.5696 CT        1 <0>       -0.08999
      5 O1         -0.3120   -0.4730    1.3115 OS        1 <0>       -0.45842
      6 O2          1.6832    0.7476    0.6779 OH        1 <0>       -0.60429
      7 H1         -1.4431   -1.7703    0.0840 H1        1 <0>        0.05930
      8 H2          0.3019   -2.1517    0.1993 H1        1 <0>        0.05930
      9 H3          0.7081   -0.4003   -1.4576 HC        1 <0>        0.08811
     10 H4         -0.2546    1.5151    0.6416 H2        1 <0>        0.07085
     11 H5         -2.1531    0.5775   -0.8979 HC        1 <0>        0.04381
     12 H6         -1.6475   -0.3399   -2.3297 HC        1 <0>        0.04381
     13 H7         -1.0343    1.3042   -2.0675 HC        1 <0>        0.04381
     14 H8          1.7732    1.2319    1.5094 HO        1 <0>        0.42305
@<TRIPOS>BOND
     1    1    2 1
     2    1    5 1
     3    2    3 1
     4    2    4 1
     5    3    5 1
     6    3    6 1
     7    1    7 1
     8    1    8 1
     9    2    9 1
    10    3   10 1
    11    4   11 1
    12    4   12 1
    13    4   13 1
    14    6   14 1
@<TRIPOS>SUBSTRUCTURE
     1 <0>         1 GROUP 0 A     ****
