@<TRIPOS>MOLECULE
AlkEthOH_r900
   30    30     1     0     0
SMALL
USER_CHARGES

@<TRIPOS>ATOM
      1 C1          1.7270   -1.7642    0.1784 CT        1 <0>       -0.07285
      2 C2          1.2454   -1.1632    1.4999 CT        1 <0>       -0.07277
      3 C3          1.5475   -0.9065   -1.0760 CT        1 <0>       -0.07172
      4 C4         -0.2703   -0.9952    1.6111 CT        1 <0>       -0.07172
      5 C5          0.0928   -0.7235   -1.5114 CT        1 <0>       -0.06837
      6 C6         -0.7734    0.4364    1.4230 CT        1 <0>       -0.06837
      7 C7         -0.5470    0.6425   -1.1834 CT        1 <0>       -0.05463
      8 C8         -0.2350    1.2288    0.2193 CT        1 <0>       -0.05463
      9 C9         -2.0501    0.5636   -1.4885 CT        1 <0>       -0.09177
     10 C10        -0.7369    2.6811    0.3275 CT        1 <0>       -0.09177
     11 H1          2.7995   -1.9738    0.2837 HC        1 <0>        0.03614
     12 H2          1.2459   -2.7389    0.0257 HC        1 <0>        0.03614
     13 H3          1.5569   -1.8597    2.2901 HC        1 <0>        0.03614
     14 H4          1.7715   -0.2259    1.7117 HC        1 <0>        0.03614
     15 H5          2.0690    0.0509   -0.9757 HC        1 <0>        0.03659
     16 H6          2.0659   -1.4351   -1.8876 HC        1 <0>        0.03659
     17 H7         -0.8006   -1.6855    0.9491 HC        1 <0>        0.03659
     18 H8         -0.5678   -1.2987    2.6244 HC        1 <0>        0.03659
     19 H9          0.0673   -0.8236   -2.6064 HC        1 <0>        0.03630
     20 H10        -0.5273   -1.5507   -1.1505 HC        1 <0>        0.03630
     21 H11        -1.8701    0.4188    1.4019 HC        1 <0>        0.03630
     22 H12        -0.5103    0.9915    2.3346 HC        1 <0>        0.03630
     23 H13        -0.1208    1.3502   -1.9099 HC        1 <0>        0.04290
     24 H14         0.8530    1.3054    0.3197 HC        1 <0>        0.04290
     25 H15        -2.5229   -0.1261   -0.7957 HC        1 <0>        0.03278
     26 H16        -2.1936    0.2121   -2.5058 HC        1 <0>        0.03278
     27 H17        -2.4925    1.5493   -1.3787 HC        1 <0>        0.03278
     28 H18        -1.8174    2.6921    0.2368 HC        1 <0>        0.03278
     29 H19        -0.2959    3.2704   -0.4689 HC        1 <0>        0.03278
     30 H20        -0.4452    3.0878    1.2896 HC        1 <0>        0.03278
@<TRIPOS>BOND
     1    1    2 1
     2    1    3 1
     3    2    4 1
     4    3    5 1
     5    4    6 1
     6    5    7 1
     7    6    8 1
     8    7    8 1
     9    7    9 1
    10    8   10 1
    11    1   11 1
    12    1   12 1
    13    2   13 1
    14    2   14 1
    15    3   15 1
    16    3   16 1
    17    4   17 1
    18    4   18 1
    19    5   19 1
    20    5   20 1
    21    6   21 1
    22    6   22 1
    23    7   23 1
    24    8   24 1
    25    9   25 1
    26    9   26 1
    27    9   27 1
    28   10   28 1
    29   10   29 1
    30   10   30 1
@<TRIPOS>SUBSTRUCTURE
     1 <0>         1 GROUP 0 A     ****
