@<TRIPOS>MOLECULE
AlkEthOH_r982
   23    23     1     0     0
SMALL
USER_CHARGES

@<TRIPOS>ATOM
      1 C1         -1.2810    1.1876    1.0018 CT        1 <0>       -0.11207
      2 C2         -0.4684   -0.0013    1.5101 CT        1 <0>       -0.06990
      3 C3         -2.0977    0.9034   -0.2548 CT        1 <0>        0.12968
      4 C4         -0.1671    0.2809   -1.5177 CT        1 <0>        0.09976
      5 C5          0.8886   -0.1501    0.7981 CT        1 <0>       -0.05885
      6 C6          0.7865   -0.5694   -0.6825 CT        1 <0>        0.11815
      7 C7          1.7583   -1.1557    1.5692 CT        1 <0>       -0.09120
      8 O1         -1.5087   -0.0149   -1.1624 OS        1 <0>       -0.41445
      9 O2          2.0894   -0.4805   -1.2617 OH        1 <0>       -0.60104
     10 H1         -1.9713    1.5229    1.7859 HC        1 <0>        0.04639
     11 H2         -0.6104    2.0361    0.8175 HC        1 <0>        0.04639
     12 H3         -0.2805    0.1671    2.5785 HC        1 <0>        0.04845
     13 H4         -1.0502   -0.9285    1.4400 HC        1 <0>        0.04845
     14 H5         -3.0620    0.4726    0.0369 H1        1 <0>        0.04433
     15 H6         -2.3204    1.8384   -0.7818 H1        1 <0>        0.04433
     16 H7          0.0593    1.3526   -1.4534 H1        1 <0>        0.05014
     17 H8         -0.0484    0.0132   -2.5745 H1        1 <0>        0.05014
     18 H9          1.4179    0.8111    0.8453 HC        1 <0>        0.05972
     19 H10         0.4645   -1.6186   -0.7343 H1        1 <0>        0.04670
     20 H11         1.2796   -2.1296    1.5546 HC        1 <0>        0.03852
     21 H12         1.8708   -0.8201    2.5952 HC        1 <0>        0.03852
     22 H13         2.7339   -1.2218    1.0980 HC        1 <0>        0.03852
     23 H14         2.0098   -0.8190   -2.1659 HO        1 <0>        0.39932
@<TRIPOS>BOND
     1    1    2 1
     2    1    3 1
     3    2    5 1
     4    3    8 1
     5    4    6 1
     6    4    8 1
     7    5    6 1
     8    5    7 1
     9    6    9 1
    10    1   10 1
    11    1   11 1
    12    2   12 1
    13    2   13 1
    14    3   14 1
    15    3   15 1
    16    4   16 1
    17    4   17 1
    18    5   18 1
    19    6   19 1
    20    7   20 1
    21    7   21 1
    22    7   22 1
    23    9   23 1
@<TRIPOS>SUBSTRUCTURE
     1 <0>         1 GROUP 0 A     ****
