@<TRIPOS>MOLECULE
AlkEthOH_r872
   27    27     1     0     0
SMALL
USER_CHARGES

@<TRIPOS>ATOM
      1 C1          0.7864   -0.2577   -0.7184 CT        1 <0>       -0.07509
      2 C2          1.2888   -1.6680   -0.4444 CT        1 <0>       -0.07507
      3 C3          1.9096    0.7699   -0.6398 CT        1 <0>       -0.07298
      4 C4          2.4491   -2.0347   -1.3660 CT        1 <0>       -0.07012
      5 C5          3.0894    0.4143   -1.5646 CT        1 <0>       -0.05273
      6 C6          3.6306   -1.0306   -1.3081 CT        1 <0>       -0.04471
      7 C7          4.1530    1.5147   -1.4656 CT        1 <0>       -0.08956
      8 C8          4.3512   -1.1555    0.0508 CT        1 <0>       -0.08655
      9 C9          4.6365   -1.4320   -2.4090 CT        1 <0>       -0.08655
     10 H1          0.3296   -0.2209   -1.7152 HC        1 <0>        0.03791
     11 H2          0.0001   -0.0002    0.0001 HC        1 <0>        0.03791
     12 H3          1.5955   -1.7565    0.6040 HC        1 <0>        0.03867
     13 H4          0.4692   -2.3811   -0.5906 HC        1 <0>        0.03867
     14 H5          1.5067    1.7523   -0.9162 HC        1 <0>        0.03884
     15 H6          2.2516    0.8585    0.3984 HC        1 <0>        0.03884
     16 H7          2.7970   -3.0453   -1.1170 HC        1 <0>        0.03799
     17 H8          2.0682   -2.0875   -2.3951 HC        1 <0>        0.03799
     18 H9          2.7050    0.4422   -2.5949 HC        1 <0>        0.04300
     19 H10         4.5670    1.5295   -0.4611 HC        1 <0>        0.03348
     20 H11         3.6997    2.4777   -1.6843 HC        1 <0>        0.03348
     21 H12         4.9466    1.3173   -2.1812 HC        1 <0>        0.03348
     22 H13         5.1736   -0.4507    0.0806 HC        1 <0>        0.03385
     23 H14         4.7271   -2.1658    0.1596 HC        1 <0>        0.03385
     24 H15         3.6478   -0.9357    0.8451 HC        1 <0>        0.03385
     25 H16         5.4731   -0.7443   -2.3893 HC        1 <0>        0.03385
     26 H17         4.1421   -1.3854   -3.3716 HC        1 <0>        0.03385
     27 H18         4.9823   -2.4407   -2.2191 HC        1 <0>        0.03385
@<TRIPOS>BOND
     1    1    2 1
     2    1    3 1
     3    2    4 1
     4    3    5 1
     5    4    6 1
     6    5    6 1
     7    5    7 1
     8    6    8 1
     9    6    9 1
    10    1   10 1
    11    1   11 1
    12    2   12 1
    13    2   13 1
    14    3   14 1
    15    3   15 1
    16    4   16 1
    17    4   17 1
    18    5   18 1
    19    7   19 1
    20    7   20 1
    21    7   21 1
    22    8   22 1
    23    8   23 1
    24    8   24 1
    25    9   25 1
    26    9   26 1
    27    9   27 1
@<TRIPOS>SUBSTRUCTURE
     1 <0>         1 GROUP 0 A     ****
