@<TRIPOS>MOLECULE
AlkEthOH_r1154
   25    25     1     0     0
SMALL
USER_CHARGES

@<TRIPOS>ATOM
      1 C1          1.6003   -0.5557    0.0529 CT        1 <0>       -0.17014
      2 C2          1.2087   -1.1077    1.4250 CT        1 <0>        0.13902
      3 C3         -1.0052   -1.7734    0.8005 CT        1 <0>        0.32059
      4 C4         -1.1760   -0.0513   -0.8475 CT        1 <0>        0.33996
      5 C5          1.0234    0.8262   -0.3162 CT        1 <0>        0.35586
      6 C6         -2.2384    0.7102   -1.6283 CT        1 <0>       -0.08932
      7 C7          1.6319    1.9147    0.5733 CT        1 <0>       -0.11446
      8 O1         -0.1834   -1.0538    1.7145 OS        1 <0>       -0.41853
      9 O2         -1.8694   -0.9217    0.0506 OS        1 <0>       -0.44009
     10 O3         -0.3945    0.9205   -0.1532 OS        1 <0>       -0.40707
     11 O4          1.4025    1.0920   -1.6718 OH        1 <0>       -0.63030
     12 H1          2.6959   -0.5256   -0.0187 HC        1 <0>        0.05571
     13 H2          1.3055   -1.2814   -0.7145 HC        1 <0>        0.05571
     14 H3          1.5522   -2.1444    1.5240 H1        1 <0>        0.04837
     15 H4          1.7183   -0.5362    2.2078 H1        1 <0>        0.04837
     16 H5         -0.4390   -2.4332    0.1324 H2        1 <0>        0.05683
     17 H6         -1.6541   -2.4169    1.4025 H2        1 <0>        0.05683
     18 H7         -0.5898   -0.6428   -1.5600 H2        1 <0>        0.04766
     19 H8         -2.8425    1.3117   -0.9485 HC        1 <0>        0.05551
     20 H9         -2.8892    0.0107   -2.1537 HC        1 <0>        0.05551
     21 H10        -1.7659    1.3689   -2.3576 HC        1 <0>        0.05551
     22 H11         1.2163    2.8820    0.3018 HC        1 <0>        0.05618
     23 H12         2.7105    1.9354    0.4381 HC        1 <0>        0.05618
     24 H13         1.4034    1.7041    1.6153 HC        1 <0>        0.05618
     25 H14         2.3701    1.0841   -1.6870 HO        1 <0>        0.40993
@<TRIPOS>BOND
     1    1    2 1
     2    1    5 1
     3    2    8 1
     4    3    8 1
     5    3    9 1
     6    4    6 1
     7    4    9 1
     8    4   10 1
     9    5    7 1
    10    5   10 1
    11    5   11 1
    12    1   12 1
    13    1   13 1
    14    2   14 1
    15    2   15 1
    16    3   16 1
    17    3   17 1
    18    4   18 1
    19    6   19 1
    20    6   20 1
    21    6   21 1
    22    7   22 1
    23    7   23 1
    24    7   24 1
    25   11   25 1
@<TRIPOS>SUBSTRUCTURE
     1 <0>         1 GROUP 0 A     ****
