@<TRIPOS>MOLECULE
AlkEthOH_r777
   29    29     1     0     0
SMALL
USER_CHARGES

@<TRIPOS>ATOM
      1 C1          2.3369   -0.4684    0.4203 CT        1 <0>       -0.06478
      2 C2          1.1964   -1.2069    1.1263 CT        1 <0>       -0.08002
      3 C3          1.9983    0.7637   -0.4237 CT        1 <0>       -0.11133
      4 C4          0.2432   -2.0076    0.2417 CT        1 <0>       -0.10364
      5 C5         -1.5989   -0.2080   -0.1630 CT        1 <0>       -0.08879
      6 C6          1.2119    1.8495    0.3072 CT        1 <0>        0.13526
      7 C7         -0.6648   -1.2783   -0.7544 CT        1 <0>        0.14835
      8 C8         -1.0385    1.2214   -0.2382 CT        1 <0>        0.14020
      9 C9         -2.1405    2.2408    0.0408 CT        1 <0>       -0.10628
     10 O1         -0.0522    1.3982    0.7747 OS        1 <0>       -0.42716
     11 O2         -1.4920   -2.3044   -1.3316 OH        1 <0>       -0.61167
     12 H1          3.0489   -0.1516    1.1940 HC        1 <0>        0.03464
     13 H2          2.8823   -1.1805   -0.2118 HC        1 <0>        0.03464
     14 H3          1.6745   -1.9357    1.7966 HC        1 <0>        0.05476
     15 H4          0.6425   -0.5507    1.8017 HC        1 <0>        0.05476
     16 H5          2.9430    1.2047   -0.7672 HC        1 <0>        0.04289
     17 H6          1.4745    0.4580   -1.3308 HC        1 <0>        0.04289
     18 H7          0.8280   -2.7534   -0.3147 HC        1 <0>        0.04040
     19 H8         -0.3957   -2.6080    0.9052 HC        1 <0>        0.04040
     20 H9         -2.5508   -0.2327   -0.7099 HC        1 <0>        0.06788
     21 H10        -1.8372   -0.4680    0.8763 HC        1 <0>        0.06788
     22 H11         1.7806    2.1774    1.1843 H1        1 <0>        0.04456
     23 H12         1.0780    2.7297   -0.3329 H1        1 <0>        0.04456
     24 H13        -0.0804   -0.8784   -1.5854 H1        1 <0>        0.03007
     25 H14        -0.6379    1.4159   -1.2406 H1        1 <0>        0.04277
     26 H15        -2.5580    2.0716    1.0321 HC        1 <0>        0.04325
     27 H16        -2.9317    2.1417   -0.7007 HC        1 <0>        0.04325
     28 H17        -1.7317    3.2490   -0.0065 HC        1 <0>        0.04325
     29 H18        -0.8842   -2.9243   -1.7553 HO        1 <0>        0.39701
@<TRIPOS>BOND
     1    1    2 1
     2    1    3 1
     3    2    4 1
     4    3    6 1
     5    4    7 1
     6    5    7 1
     7    5    8 1
     8    6   10 1
     9    7   11 1
    10    8    9 1
    11    8   10 1
    12    1   12 1
    13    1   13 1
    14    2   14 1
    15    2   15 1
    16    3   16 1
    17    3   17 1
    18    4   18 1
    19    4   19 1
    20    5   20 1
    21    5   21 1
    22    6   22 1
    23    6   23 1
    24    7   24 1
    25    8   25 1
    26    9   26 1
    27    9   27 1
    28    9   28 1
    29   11   29 1
@<TRIPOS>SUBSTRUCTURE
     1 <0>         1 GROUP 0 A     ****
