@<TRIPOS>MOLECULE
AlkEthOH_r356
   29    29     1     0     0
SMALL
USER_CHARGES

@<TRIPOS>ATOM
      1 C1         -2.4167   -0.1777    0.1208 CT        1 <0>       -0.07262
      2 C2         -1.7133   -1.0762    1.1306 CT        1 <0>       -0.07214
      3 C3         -1.8092    1.2029   -0.0783 CT        1 <0>       -0.07214
      4 C4         -0.2221   -0.8639    1.3747 CT        1 <0>       -0.10186
      5 C5         -0.6186    1.1967   -1.0401 CT        1 <0>       -0.10186
      6 C6          0.7044   -0.7279    0.1467 CT        1 <0>        0.17395
      7 C7          0.7215    0.7134   -0.4553 CT        1 <0>        0.17395
      8 C8          0.4414   -1.8241   -0.8948 CT        1 <0>       -0.12342
      9 C9          1.8043    0.8802   -1.5406 CT        1 <0>       -0.12342
     10 O1          2.0397   -0.9648    0.6479 OH        1 <0>       -0.58967
     11 O2          1.0686    1.6414    0.5884 OH        1 <0>       -0.58967
     12 H1         -2.4880   -0.6921   -0.8449 HC        1 <0>        0.03540
     13 H2         -3.4559   -0.0565    0.4542 HC        1 <0>        0.03540
     14 H3         -2.2182   -0.9616    2.0994 HC        1 <0>        0.04205
     15 H4         -1.8887   -2.1207    0.8424 HC        1 <0>        0.04205
     16 H5         -2.5839    1.8376   -0.5285 HC        1 <0>        0.04205
     17 H6         -1.5551    1.6685    0.8801 HC        1 <0>        0.04205
     18 H7         -0.0880   -0.0001    2.0387 HC        1 <0>        0.04915
     19 H8          0.1251   -1.7114    1.9842 HC        1 <0>        0.04915
     20 H9         -0.8717    0.6240   -1.9408 HC        1 <0>        0.04915
     21 H10        -0.4891    2.2379   -1.3684 HC        1 <0>        0.04915
     22 H11         1.1129   -1.6897   -1.7377 HC        1 <0>        0.04547
     23 H12        -0.5875   -1.7581   -1.2362 HC        1 <0>        0.04547
     24 H13         0.6132   -2.7977   -0.4452 HC        1 <0>        0.04547
     25 H14         2.7562    0.5443   -1.1459 HC        1 <0>        0.04547
     26 H15         1.8693    1.9258   -1.8183 HC        1 <0>        0.04547
     27 H16         1.5337    0.2855   -2.4053 HC        1 <0>        0.04547
     28 H17         2.0207   -1.8565    1.0138 HO        1 <0>        0.39524
     29 H18         1.1397    2.5038    0.1594 HO        1 <0>        0.39524
@<TRIPOS>BOND
     1    1    2 1
     2    1    3 1
     3    2    4 1
     4    3    5 1
     5    4    6 1
     6    5    7 1
     7    6    7 1
     8    6    8 1
     9    6   10 1
    10    7    9 1
    11    7   11 1
    12    1   12 1
    13    1   13 1
    14    2   14 1
    15    2   15 1
    16    3   16 1
    17    3   17 1
    18    4   18 1
    19    4   19 1
    20    5   20 1
    21    5   21 1
    22    8   22 1
    23    8   23 1
    24    8   24 1
    25    9   25 1
    26    9   26 1
    27    9   27 1
    28   10   28 1
    29   11   29 1
@<TRIPOS>SUBSTRUCTURE
     1 <0>         1 GROUP 0 A     ****
