@<TRIPOS>MOLECULE
AlkEthOH_r993
   22    22     1     0     0
SMALL
USER_CHARGES

@<TRIPOS>ATOM
      1 C1          0.8443   -0.6815    0.1524 CT        1 <0>       -0.11006
      2 C2          2.3676   -1.7336    1.8456 CT        1 <0>       -0.10595
      3 C3          0.4594   -2.0918   -0.2760 CT        1 <0>        0.12985
      4 C4          1.2916   -0.6645    1.6181 CT        1 <0>       -0.06499
      5 C5          1.8930   -3.0946    1.3284 CT        1 <0>        0.13823
      6 C6          1.7952    0.7181    2.0233 CT        1 <0>       -0.08892
      7 C7          2.9908   -4.1419    1.4557 CT        1 <0>       -0.09049
      8 O1          1.5370   -3.0005   -0.0545 OS        1 <0>       -0.41573
      9 H1          1.6700   -0.3315   -0.4802 HC        1 <0>        0.05048
     10 H2         -0.0001   -0.0001    0.0001 HC        1 <0>        0.05048
     11 H3          3.2808   -1.4387    1.3117 HC        1 <0>        0.05054
     12 H4          2.6180   -1.7987    2.9110 HC        1 <0>        0.05054
     13 H5         -0.4305   -2.4427    0.2594 H1        1 <0>        0.04514
     14 H6          0.2273   -2.1047   -1.3457 H1        1 <0>        0.04514
     15 H7          0.4248   -0.9074    2.2471 HC        1 <0>        0.04481
     16 H8          1.0175   -3.4336    1.8966 H1        1 <0>        0.03237
     17 H9          2.6576    0.9905    1.4165 HC        1 <0>        0.03499
     18 H10         2.0859    0.7132    3.0729 HC        1 <0>        0.03499
     19 H11         1.0084    1.4566    1.8752 HC        1 <0>        0.03499
     20 H12         3.8737   -3.8277    0.8985 HC        1 <0>        0.04453
     21 H13         2.6444   -5.0966    1.0589 HC        1 <0>        0.04453
     22 H14         3.2628   -4.2728    2.5036 HC        1 <0>        0.04453
@<TRIPOS>BOND
     1    1    3 1
     2    1    4 1
     3    2    4 1
     4    2    5 1
     5    3    8 1
     6    4    6 1
     7    5    7 1
     8    5    8 1
     9    1    9 1
    10    1   10 1
    11    2   11 1
    12    2   12 1
    13    3   13 1
    14    3   14 1
    15    4   15 1
    16    5   16 1
    17    6   17 1
    18    6   18 1
    19    6   19 1
    20    7   20 1
    21    7   21 1
    22    7   22 1
@<TRIPOS>SUBSTRUCTURE
     1 <0>         1 GROUP 0 A     ****
