@<TRIPOS>MOLECULE
AlkEthOH_r585
   23    23     1     0     0
SMALL
USER_CHARGES

@<TRIPOS>ATOM
      1 C1         -0.0227   -0.0179    1.4320 CT        1 <0>       -0.09930
      2 C2          0.7186   -1.2841    1.0073 CT        1 <0>        0.14041
      3 C3         -0.0196    0.8856   -0.9739 CT        1 <0>        0.14165
      4 C4          1.4869   -0.9473   -1.2217 CT        1 <0>        0.32847
      5 C5         -0.8388    0.6943    0.3220 CT        1 <0>       -0.07606
      6 C6         -2.1179   -0.1142    0.0221 CT        1 <0>       -0.08547
      7 C7         -1.2588    2.0819    0.8458 CT        1 <0>       -0.08547
      8 O1          1.8091   -0.9318    0.1646 OS        1 <0>       -0.45858
      9 O2          0.2433   -0.3666   -1.5982 OS        1 <0>       -0.44995
     10 H1         -0.6876   -0.2638    2.2696 HC        1 <0>        0.04971
     11 H2          0.7231    0.6890    1.8208 HC        1 <0>        0.04971
     12 H3          1.1505   -1.7473    1.9011 H1        1 <0>        0.05216
     13 H4          0.0675   -2.0311    0.5406 H1        1 <0>        0.05216
     14 H5         -0.6051    1.4721   -1.6919 H1        1 <0>        0.05162
     15 H6          0.9098    1.4416   -0.7950 H1        1 <0>        0.05162
     16 H7          2.2902   -0.4310   -1.7579 H2        1 <0>        0.05712
     17 H8          1.4871   -1.9868   -1.5666 H2        1 <0>        0.05712
     18 H9         -2.6816    0.3903   -0.7539 HC        1 <0>        0.03718
     19 H10        -2.7133   -0.1820    0.9250 HC        1 <0>        0.03718
     20 H11        -1.8389   -1.1069   -0.3111 HC        1 <0>        0.03718
     21 H12        -1.8310    2.5923    0.0795 HC        1 <0>        0.03718
     22 H13        -0.3701    2.6551    1.0842 HC        1 <0>        0.03718
     23 H14        -1.8654    1.9567    1.7356 HC        1 <0>        0.03718
@<TRIPOS>BOND
     1    1    2 1
     2    1    5 1
     3    2    8 1
     4    3    5 1
     5    3    9 1
     6    4    8 1
     7    4    9 1
     8    5    6 1
     9    5    7 1
    10    1   10 1
    11    1   11 1
    12    2   12 1
    13    2   13 1
    14    3   14 1
    15    3   15 1
    16    4   16 1
    17    4   17 1
    18    6   18 1
    19    6   19 1
    20    6   20 1
    21    7   21 1
    22    7   22 1
    23    7   23 1
@<TRIPOS>SUBSTRUCTURE
     1 <0>         1 GROUP 0 A     ****
