@<TRIPOS>MOLECULE
AlkEthOH_r959
   25    25     1     0     0
SMALL
USER_CHARGES

@<TRIPOS>ATOM
      1 C1          0.9703   -1.6537   -0.4194 CT        1 <0>       -0.11048
      2 C2          1.0744   -0.9689    0.9416 CT        1 <0>       -0.06837
      3 C3         -0.7677    0.8162    0.6213 CT        1 <0>       -0.09649
      4 C4          1.0499   -0.7085   -1.6140 CT        1 <0>        0.13407
      5 C5         -0.2685   -0.3957    1.4279 CT        1 <0>       -0.06248
      6 C6         -0.8341    0.5888   -0.8915 CT        1 <0>        0.14137
      7 C7         -0.1602   -0.0092    2.9075 CT        1 <0>       -0.09139
      8 C8         -1.5588    1.7498   -1.5668 CT        1 <0>       -0.09818
      9 O1          0.4948    0.5812   -1.4066 OS        1 <0>       -0.41954
     10 H1          1.7729   -2.3949   -0.5196 HC        1 <0>        0.04288
     11 H2          0.0353   -2.2257   -0.4686 HC        1 <0>        0.04288
     12 H3          1.4062   -1.7264    1.6637 HC        1 <0>        0.04656
     13 H4          1.8490   -0.1925    0.9270 HC        1 <0>        0.04656
     14 H5         -1.7651    1.0867    0.9914 HC        1 <0>        0.04964
     15 H6         -0.1075    1.6700    0.8261 HC        1 <0>        0.04964
     16 H7          2.1029   -0.5514   -1.8732 H1        1 <0>        0.04123
     17 H8          0.5785   -1.1658   -2.4915 H1        1 <0>        0.04123
     18 H9         -1.0276   -1.1861    1.3548 HC        1 <0>        0.04076
     19 H10        -1.3665   -0.3384   -1.1363 H1        1 <0>        0.03926
     20 H11         0.5840    0.7741    3.0249 HC        1 <0>        0.03409
     21 H12         0.1354   -0.8783    3.4893 HC        1 <0>        0.03409
     22 H13        -1.1230    0.3514    3.2602 HC        1 <0>        0.03409
     23 H14        -1.0502    2.6859   -1.3401 HC        1 <0>        0.04286
     24 H15        -2.5848    1.8060   -1.2057 HC        1 <0>        0.04286
     25 H16        -1.5688    1.6026   -2.6460 HC        1 <0>        0.04286
@<TRIPOS>BOND
     1    1    2 1
     2    1    4 1
     3    2    5 1
     4    3    5 1
     5    3    6 1
     6    4    9 1
     7    5    7 1
     8    6    8 1
     9    6    9 1
    10    1   10 1
    11    1   11 1
    12    2   12 1
    13    2   13 1
    14    3   14 1
    15    3   15 1
    16    4   16 1
    17    4   17 1
    18    5   18 1
    19    6   19 1
    20    7   20 1
    21    7   21 1
    22    7   22 1
    23    8   23 1
    24    8   24 1
    25    8   25 1
@<TRIPOS>SUBSTRUCTURE
     1 <0>         1 GROUP 0 A     ****
