@<TRIPOS>MOLECULE
AlkEthOH_r613
   23    23     1     0     0
SMALL
USER_CHARGES

@<TRIPOS>ATOM
      1 C1          0.3624   -0.0813   -1.6681 CT        1 <0>       -0.15084
      2 C2          0.4725   -1.5650   -1.3548 CT        1 <0>        0.12996
      3 C3         -0.0939   -1.2448    0.9226 CT        1 <0>        0.12544
      4 C4         -0.5801    0.6177   -0.6872 CT        1 <0>        0.14985
      5 C5         -0.2307    0.2863    0.7873 CT        1 <0>       -0.07393
      6 C6          1.0866    0.9637    1.2200 CT        1 <0>       -0.08282
      7 C7         -1.3486    0.7750    1.7259 CT        1 <0>       -0.08282
      8 O1          0.8645   -1.7684    0.0014 OS        1 <0>       -0.40810
      9 O2         -0.5328    2.0168   -0.9472 OH        1 <0>       -0.59360
     10 H1          1.3544    0.3843   -1.6176 HC        1 <0>        0.05715
     11 H2          0.0145    0.0681   -2.6969 HC        1 <0>        0.05715
     12 H3         -0.4754   -2.0830   -1.5423 H1        1 <0>        0.04781
     13 H4          1.2314   -2.0257   -1.9951 H1        1 <0>        0.04781
     14 H5          0.2417   -1.5139    1.9306 H1        1 <0>        0.04982
     15 H6         -1.0553   -1.7487    0.7605 H1        1 <0>        0.04982
     16 H7         -1.6028    0.2823   -0.9047 H1        1 <0>        0.02910
     17 H8          0.9806    2.0374    1.1215 HC        1 <0>        0.04156
     18 H9          1.8900    0.6123    0.5836 HC        1 <0>        0.04156
     19 H10         1.2937    0.7064    2.2519 HC        1 <0>        0.04156
     20 H11        -1.4475    1.8512    1.6333 HC        1 <0>        0.04156
     21 H12        -1.0942    0.5175    2.7484 HC        1 <0>        0.04156
     22 H13        -2.2818    0.2964    1.4490 HC        1 <0>        0.04156
     23 H14        -0.8216    2.1384   -1.8653 HO        1 <0>        0.39884
@<TRIPOS>BOND
     1    1    2 1
     2    1    4 1
     3    2    8 1
     4    3    5 1
     5    3    8 1
     6    4    5 1
     7    4    9 1
     8    5    6 1
     9    5    7 1
    10    1   10 1
    11    1   11 1
    12    2   12 1
    13    2   13 1
    14    3   14 1
    15    3   15 1
    16    4   16 1
    17    6   17 1
    18    6   18 1
    19    6   19 1
    20    7   20 1
    21    7   21 1
    22    7   22 1
    23    9   23 1
@<TRIPOS>SUBSTRUCTURE
     1 <0>         1 GROUP 0 A     ****
