@<TRIPOS>MOLECULE
AlkEthOH_r707
   28    28     1     0     0
SMALL
USER_CHARGES

@<TRIPOS>ATOM
      1 C1          1.6064    0.5094   -1.7911 CT        1 <0>       -0.11104
      2 C2          1.5024   -1.0236   -1.7853 CT        1 <0>       -0.07343
      3 C3          2.1323    1.1411   -0.4996 CT        1 <0>        0.14015
      4 C4          0.4774   -1.6043   -0.8099 CT        1 <0>        0.12795
      5 C5          0.1361    1.1613    0.8469 CT        1 <0>        0.51684
      6 C6         -1.4350   -0.6178    0.3085 CT        1 <0>        0.35669
      7 C7         -2.6820    0.1967   -0.0583 CT        1 <0>       -0.10929
      8 C8         -1.8906   -1.9401    0.9366 CT        1 <0>       -0.10929
      9 O1          1.4740    0.6932    0.6762 OS        1 <0>       -0.45910
     10 O2         -0.7315   -0.8604   -0.9159 OS        1 <0>       -0.45897
     11 O3         -0.7028    0.1004    1.3161 OS        1 <0>       -0.47527
     12 O4          0.1133    2.2443    1.7758 OH        1 <0>       -0.60609
     13 H1          2.3007    0.7981   -2.5958 HC        1 <0>        0.05173
     14 H2          0.6346    0.9482   -2.0618 HC        1 <0>        0.05173
     15 H3          1.1985   -1.3347   -2.7994 HC        1 <0>        0.04628
     16 H4          2.4963   -1.4685   -1.6077 HC        1 <0>        0.04628
     17 H5          3.1917    0.8896   -0.3866 H1        1 <0>        0.04915
     18 H6          2.0750    2.2333   -0.5592 H1        1 <0>        0.04915
     19 H7          0.3516   -2.6682   -0.9902 H1        1 <0>        0.04981
     20 H8          0.8421   -1.4675    0.2066 H1        1 <0>        0.04981
     21 H9         -0.2744    1.5011   -0.0664 H3        1 <0>        0.10702
     22 H10        -2.3774    1.1378   -0.5051 HC        1 <0>        0.05455
     23 H11        -3.2613    0.3898    0.8390 HC        1 <0>        0.05455
     24 H12        -3.2826   -0.3656   -0.7662 HC        1 <0>        0.05455
     25 H13        -1.0198   -2.5317    1.2034 HC        1 <0>        0.05455
     26 H14        -2.4972   -2.4887    0.2223 HC        1 <0>        0.05455
     27 H15        -2.4762   -1.7335    1.8275 HC        1 <0>        0.05455
     28 H16         0.4646    1.8956    2.6083 HO        1 <0>        0.43259
@<TRIPOS>BOND
     1    1    2 1
     2    1    3 1
     3    2    4 1
     4    3    9 1
     5    4   10 1
     6    5    9 1
     7    5   11 1
     8    5   12 1
     9    6    7 1
    10    6    8 1
    11    6   10 1
    12    6   11 1
    13    1   13 1
    14    1   14 1
    15    2   15 1
    16    2   16 1
    17    3   17 1
    18    3   18 1
    19    4   19 1
    20    4   20 1
    21    5   21 1
    22    7   22 1
    23    7   23 1
    24    7   24 1
    25    8   25 1
    26    8   26 1
    27    8   27 1
    28   12   28 1
@<TRIPOS>SUBSTRUCTURE
     1 <0>         1 GROUP 0 A     ****
