@<TRIPOS>MOLECULE
AlkEthOH_r741
   26    26     1     0     0
SMALL
USER_CHARGES

@<TRIPOS>ATOM
      1 C1         -1.4814   -0.2399    1.6834 CT        1 <0>       -0.07134
      2 C2         -1.4899   -1.0804    0.4019 CT        1 <0>       -0.07149
      3 C3         -1.4909    1.2764    1.4522 CT        1 <0>       -0.09800
      4 C4         -0.1323   -1.6693    0.0088 CT        1 <0>       -0.10035
      5 C5         -0.2685    1.8344    0.7314 CT        1 <0>        0.12942
      6 C6          1.0687   -0.7162    0.0004 CT        1 <0>        0.11350
      7 C7          0.9342    0.5321   -0.8924 CT        1 <0>        0.15604
      8 C8          0.8478    0.1868   -2.3796 CT        1 <0>       -0.08620
      9 O1         -0.2163    1.3207   -0.5929 OS        1 <0>       -0.41891
     10 O2          2.2287   -1.4445   -0.4131 OH        1 <0>       -0.60193
     11 H1         -2.3952   -0.4784    2.2436 HC        1 <0>        0.03602
     12 H2         -0.6489   -0.5212    2.3378 HC        1 <0>        0.03602
     13 H3         -2.1687   -1.9296    0.5577 HC        1 <0>        0.04980
     14 H4         -1.9212   -0.5189   -0.4344 HC        1 <0>        0.04980
     15 H5         -2.3905    1.5309    0.8777 HC        1 <0>        0.04779
     16 H6         -1.5819    1.7753    2.4244 HC        1 <0>        0.04779
     17 H7          0.1004   -2.4916    0.7000 HC        1 <0>        0.04196
     18 H8         -0.2266   -2.1573   -0.9698 HC        1 <0>        0.04196
     19 H9         -0.3795    2.9209    0.6460 H1        1 <0>        0.03974
     20 H10         0.6521    1.6559    1.2972 H1        1 <0>        0.03974
     21 H11         1.2660   -0.4052    1.0312 H1        1 <0>        0.02836
     22 H12         1.8259    1.1592   -0.7641 H1        1 <0>        0.04243
     23 H13        -0.0246   -0.4376   -2.5618 HC        1 <0>        0.04905
     24 H14         1.7431   -0.3514   -2.6844 HC        1 <0>        0.04905
     25 H15         0.7626    1.1005   -2.9645 HC        1 <0>        0.04905
     26 H16         2.3465   -2.1560    0.2331 HO        1 <0>        0.40070
@<TRIPOS>BOND
     1    1    2 1
     2    1    3 1
     3    2    4 1
     4    3    5 1
     5    4    6 1
     6    5    9 1
     7    6    7 1
     8    6   10 1
     9    7    8 1
    10    7    9 1
    11    1   11 1
    12    1   12 1
    13    2   13 1
    14    2   14 1
    15    3   15 1
    16    3   16 1
    17    4   17 1
    18    4   18 1
    19    5   19 1
    20    5   20 1
    21    6   21 1
    22    7   22 1
    23    8   23 1
    24    8   24 1
    25    8   25 1
    26   10   26 1
@<TRIPOS>SUBSTRUCTURE
     1 <0>         1 GROUP 0 A     ****
