@<TRIPOS>MOLECULE
AlkEthOH_r799
   22    22     1     0     0
SMALL
USER_CHARGES

@<TRIPOS>ATOM
      1 C1         -0.5040    0.9392   -0.0071 CT        1 <0>       -0.10403
      2 C2          0.0793   -1.3246    0.2168 CT        1 <0>        0.13125
      3 C3          0.8096    0.8291    0.7553 CT        1 <0>        0.13590
      4 C4         -0.5507   -0.3658   -0.7914 CT        1 <0>       -0.08460
      5 C5          0.7907    1.5468    2.0924 CT        1 <0>       -0.10030
      6 C6          0.3012   -0.2785   -2.0682 CT        1 <0>       -0.08383
      7 C7         -1.9763   -0.7735   -1.1606 CT        1 <0>       -0.08383
      8 O1          1.0502   -0.5727    0.9628 OS        1 <0>       -0.42915
      9 H1         -1.3465    0.9904    0.6948 HC        1 <0>        0.05600
     10 H2         -0.5449    1.8359   -0.6339 HC        1 <0>        0.05600
     11 H3         -0.6564   -1.7017    0.9365 H1        1 <0>        0.04773
     12 H4          0.5705   -2.1844   -0.2494 H1        1 <0>        0.04773
     13 H5          1.6376    1.2149    0.1497 H1        1 <0>        0.04945
     14 H6         -0.0293    1.1749    2.7103 HC        1 <0>        0.04322
     15 H7          0.6566    2.6204    1.9440 HC        1 <0>        0.04322
     16 H8          1.7306    1.3824    2.6237 HC        1 <0>        0.04322
     17 H9          0.2461   -1.2221   -2.6018 HC        1 <0>        0.03867
     18 H10         1.3320   -0.0720   -1.7984 HC        1 <0>        0.03867
     19 H11        -0.0778    0.5196   -2.6986 HC        1 <0>        0.03867
     20 H12        -1.9594   -1.7084   -1.7180 HC        1 <0>        0.03867
     21 H13        -2.4333    0.0003   -1.7747 HC        1 <0>        0.03867
     22 H14        -2.5671   -0.9073   -0.2562 HC        1 <0>        0.03867
@<TRIPOS>BOND
     1    1    3 1
     2    1    4 1
     3    2    4 1
     4    2    8 1
     5    3    5 1
     6    3    8 1
     7    4    6 1
     8    4    7 1
     9    1    9 1
    10    1   10 1
    11    2   11 1
    12    2   12 1
    13    3   13 1
    14    5   14 1
    15    5   15 1
    16    5   16 1
    17    6   17 1
    18    6   18 1
    19    6   19 1
    20    7   20 1
    21    7   21 1
    22    7   22 1
@<TRIPOS>SUBSTRUCTURE
     1 <0>         1 GROUP 0 A     ****
