@<TRIPOS>MOLECULE
AlkEthOH_r1042
   22    22     1     0     0
SMALL
USER_CHARGES

@<TRIPOS>ATOM
      1 C1         -1.9152   -0.3918   -0.0923 CT        1 <0>       -0.11758
      2 C2         -1.1360   -1.6864    0.1452 CT        1 <0>        0.14013
      3 C3          1.2092   -1.5239    0.5321 CT        1 <0>        0.33646
      4 C4         -1.0750    0.7309   -0.7194 CT        1 <0>        0.16863
      5 C5          1.2762    0.7332   -0.2695 CT        1 <0>        0.53447
      6 C6         -1.9320    1.9710   -0.9512 CT        1 <0>       -0.10590
      7 O1         -0.0990   -1.4655    1.0980 OS        1 <0>       -0.44456
      8 O2          1.4312   -0.6561   -0.5779 OS        1 <0>       -0.49325
      9 O3         -0.0299    1.1028    0.1844 OS        1 <0>       -0.48263
     10 O4          2.2704    1.1857    0.6505 OH        1 <0>       -0.61995
     11 H1         -2.7774   -0.6096   -0.7332 HC        1 <0>        0.05877
     12 H2         -2.2958   -0.0444    0.8770 HC        1 <0>        0.05877
     13 H3         -1.8138   -2.4308    0.5766 H1        1 <0>        0.04574
     14 H4         -0.7546   -2.1008   -0.7958 H1        1 <0>        0.04574
     15 H5          1.9340   -1.3046    1.3232 H2        1 <0>        0.07150
     16 H6          1.4000   -2.5501    0.1993 H2        1 <0>        0.07150
     17 H7         -0.6727    0.4027   -1.6862 H1        1 <0>        0.05009
     18 H8          1.4542    1.2722   -1.2078 H3        1 <0>        0.10284
     19 H9         -2.3451    2.3190   -0.0050 HC        1 <0>        0.04525
     20 H10        -2.7505    1.7349   -1.6303 HC        1 <0>        0.04525
     21 H11        -1.3263    2.7647   -1.3874 HC        1 <0>        0.04525
     22 H12         2.0938    2.1262    0.8030 HO        1 <0>        0.44348
@<TRIPOS>BOND
     1    1    2 1
     2    1    4 1
     3    2    7 1
     4    3    7 1
     5    3    8 1
     6    4    6 1
     7    4    9 1
     8    5    8 1
     9    5    9 1
    10    5   10 1
    11    1   11 1
    12    1   12 1
    13    2   13 1
    14    2   14 1
    15    3   15 1
    16    3   16 1
    17    4   17 1
    18    5   18 1
    19    6   19 1
    20    6   20 1
    21    6   21 1
    22   10   22 1
@<TRIPOS>SUBSTRUCTURE
     1 <0>         1 GROUP 0 A     ****
