@<TRIPOS>MOLECULE
AlkEthOH_r362
   37    37     1     0     0
SMALL
USER_CHARGES

@<TRIPOS>ATOM
      1 C1         -1.6142   -1.1298   -1.5865 CT        1 <0>       -0.07448
      2 C2         -2.2451    0.2565   -1.4557 CT        1 <0>       -0.07316
      3 C3         -1.5736   -1.9446   -0.2979 CT        1 <0>       -0.07123
      4 C4         -1.2505    1.4198   -1.5113 CT        1 <0>       -0.06783
      5 C5         -0.8601   -1.3518    0.9197 CT        1 <0>       -0.06823
      6 C6         -0.6232    1.8029   -0.1681 CT        1 <0>       -0.09948
      7 C7          1.2185   -0.0723   -0.0966 CT        1 <0>       -0.05121
      8 C8          0.6792   -1.1629    0.8819 CT        1 <0>       -0.03313
      9 C9          0.8541    1.4264    0.0526 CT        1 <0>        0.16093
     10 C10         1.1372   -0.8666    2.3295 CT        1 <0>       -0.08731
     11 C11         1.3464   -2.5010    0.4734 CT        1 <0>       -0.08731
     12 C12         1.7423    2.2433   -0.9105 CT        1 <0>       -0.12873
     13 O1          1.1892    1.8802    1.3695 OH        1 <0>       -0.59953
     14 H1         -2.2364   -1.7042   -2.2873 HC        1 <0>        0.03620
     15 H2         -0.6340   -1.0892   -2.0656 HC        1 <0>        0.03620
     16 H3         -2.9135    0.3813   -2.3190 HC        1 <0>        0.03893
     17 H4         -2.8903    0.3282   -0.5730 HC        1 <0>        0.03893
     18 H5         -2.6134   -2.1372    0.0015 HC        1 <0>        0.03540
     19 H6         -1.1586   -2.9340   -0.5235 HC        1 <0>        0.03540
     20 H7         -0.4990    1.2449   -2.2871 HC        1 <0>        0.03821
     21 H8         -1.8207    2.2959   -1.8511 HC        1 <0>        0.03821
     22 H9         -1.3570   -0.4320    1.2295 HC        1 <0>        0.03932
     23 H10        -1.0771   -2.0497    1.7433 HC        1 <0>        0.03932
     24 H11        -0.6825    2.8998   -0.0892 HC        1 <0>        0.04393
     25 H12        -1.2442    1.4799    0.6714 HC        1 <0>        0.04393
     26 H13         2.3156   -0.1240   -0.0072 HC        1 <0>        0.04503
     27 H14         1.0267   -0.3780   -1.1284 HC        1 <0>        0.04503
     28 H15         2.2107   -0.7296    2.3352 HC        1 <0>        0.03507
     29 H16         0.8658   -1.7033    2.9600 HC        1 <0>        0.03507
     30 H17         0.6454    0.0338    2.6742 HC        1 <0>        0.03507
     31 H18         2.4182   -2.3605    0.4496 HC        1 <0>        0.03507
     32 H19         0.9843   -2.7839   -0.5053 HC        1 <0>        0.03507
     33 H20         1.0839   -3.2555    1.2022 HC        1 <0>        0.03507
     34 H21         2.7787    1.9729   -0.7491 HC        1 <0>        0.04123
     35 H22         1.6004    3.2985   -0.7112 HC        1 <0>        0.04123
     36 H23         1.4560    2.0179   -1.9306 HC        1 <0>        0.04123
     37 H24         1.0458    2.8372    1.3686 HO        1 <0>        0.39255
@<TRIPOS>BOND
     1    1    2 1
     2    1    3 1
     3    2    4 1
     4    3    5 1
     5    4    6 1
     6    5    8 1
     7    6    9 1
     8    7    8 1
     9    7    9 1
    10    8   10 1
    11    8   11 1
    12    9   12 1
    13    9   13 1
    14    1   14 1
    15    1   15 1
    16    2   16 1
    17    2   17 1
    18    3   18 1
    19    3   19 1
    20    4   20 1
    21    4   21 1
    22    5   22 1
    23    5   23 1
    24    6   24 1
    25    6   25 1
    26    7   26 1
    27    7   27 1
    28   10   28 1
    29   10   29 1
    30   10   30 1
    31   11   31 1
    32   11   32 1
    33   11   33 1
    34   12   34 1
    35   12   35 1
    36   12   36 1
    37   13   37 1
@<TRIPOS>SUBSTRUCTURE
     1 <0>         1 GROUP 0 A     ****
