@<TRIPOS>MOLECULE
AlkEthOH_r1003
   17    17     1     0     0
SMALL
USER_CHARGES

@<TRIPOS>ATOM
      1 C1          0.9696   -0.0987    0.5029 CT        1 <0>       -0.11432
      2 C2          1.9243    0.9602   -0.0054 CT        1 <0>        0.13327
      3 C3          0.8558    0.2787    1.9626 CT        1 <0>       -0.08532
      4 C4          0.8447    1.8013    1.8840 CT        1 <0>        0.32495
      5 C5         -0.3613   -0.3042    2.6597 CT        1 <0>       -0.08707
      6 O1          1.6599    2.1495    0.7527 OS        1 <0>       -0.46104
      7 O2          1.3500    2.3480    3.0917 OH        1 <0>       -0.60326
      8 H1         -0.0001   -0.0001    0.0001 HC        1 <0>        0.05699
      9 H2          1.3394   -1.1147    0.3390 HC        1 <0>        0.05699
     10 H3          2.9666    0.6745    0.1725 H1        1 <0>        0.05149
     11 H4          1.7949    1.1662   -1.0716 H1        1 <0>        0.05149
     12 H5          1.7550   -0.0569    2.4971 HC        1 <0>        0.08323
     13 H6         -0.1648    2.1910    1.7073 H2        1 <0>        0.05349
     14 H7         -1.2745    0.0113    2.1516 HC        1 <0>        0.04094
     15 H8         -0.4019    0.0364    3.6960 HC        1 <0>        0.04094
     16 H9         -0.3149   -1.3948    2.6512 HC        1 <0>        0.04094
     17 H10         1.3245    3.3146    2.9969 HO        1 <0>        0.41629
@<TRIPOS>BOND
     1    1    2 1
     2    1    3 1
     3    2    6 1
     4    3    4 1
     5    3    5 1
     6    4    6 1
     7    4    7 1
     8    1    8 1
     9    1    9 1
    10    2   10 1
    11    2   11 1
    12    3   12 1
    13    4   13 1
    14    5   14 1
    15    5   15 1
    16    5   16 1
    17    7   17 1
@<TRIPOS>SUBSTRUCTURE
     1 <0>         1 GROUP 0 A     ****
