@<TRIPOS>MOLECULE
AlkEthOH_r793
   28    28     1     0     0
SMALL
USER_CHARGES

@<TRIPOS>ATOM
      1 C1          1.2884    0.9430   -0.5319 CT        1 <0>       -0.10155
      2 C2         -0.3736   -0.9874   -0.7107 CT        1 <0>       -0.06399
      3 C3          1.1838    1.4620    0.9016 CT        1 <0>        0.13445
      4 C4          0.3059   -0.6056    1.7328 CT        1 <0>        0.13395
      5 C5         -0.7486   -1.1600    0.7724 CT        1 <0>       -0.09237
      6 C6         -0.0077    0.4366   -1.2074 CT        1 <0>       -0.04040
      7 C7         -0.9894   -2.6445    1.0650 CT        1 <0>       -0.09105
      8 C8         -1.1771    1.4192   -1.0309 CT        1 <0>       -0.09083
      9 C9          0.2786    0.3245   -2.7255 CT        1 <0>       -0.09083
     10 O1          0.2398    0.8123    1.7347 OS        1 <0>       -0.41901
     11 H1          1.7375    1.7452   -1.1332 HC        1 <0>        0.04327
     12 H2          2.0285    0.1309   -0.5498 HC        1 <0>        0.04327
     13 H3          0.4669   -1.6601   -0.9349 HC        1 <0>        0.03758
     14 H4         -1.2145   -1.3605   -1.3128 HC        1 <0>        0.03758
     15 H5          2.1675    1.4214    1.3841 H1        1 <0>        0.04144
     16 H6          0.8985    2.5198    0.8773 H1        1 <0>        0.04144
     17 H7          0.0675   -0.9218    2.7546 H1        1 <0>        0.04385
     18 H8          1.3160   -0.9716    1.5130 H1        1 <0>        0.04385
     19 H9         -1.6931   -0.6285    0.9453 HC        1 <0>        0.06499
     20 H10        -0.0701   -3.2017    0.9027 HC        1 <0>        0.03466
     21 H11        -1.7632   -3.0254    0.4031 HC        1 <0>        0.03466
     22 H12        -1.3068   -2.7655    2.0978 HC        1 <0>        0.03466
     23 H13        -2.0590    1.0190   -1.5209 HC        1 <0>        0.03673
     24 H14        -0.9141    2.3734   -1.4759 HC        1 <0>        0.03673
     25 H15        -1.3768    1.5528    0.0275 HC        1 <0>        0.03673
     26 H16        -0.6149   -0.0288   -3.2224 HC        1 <0>        0.03673
     27 H17         1.0902   -0.3745   -2.8754 HC        1 <0>        0.03673
     28 H18         0.5529    1.3013   -3.1004 HC        1 <0>        0.03673
@<TRIPOS>BOND
     1    1    3 1
     2    1    6 1
     3    2    5 1
     4    2    6 1
     5    3   10 1
     6    4    5 1
     7    4   10 1
     8    5    7 1
     9    6    8 1
    10    6    9 1
    11    1   11 1
    12    1   12 1
    13    2   13 1
    14    2   14 1
    15    3   15 1
    16    3   16 1
    17    4   17 1
    18    4   18 1
    19    5   19 1
    20    7   20 1
    21    7   21 1
    22    7   22 1
    23    8   23 1
    24    8   24 1
    25    8   25 1
    26    9   26 1
    27    9   27 1
    28    9   28 1
@<TRIPOS>SUBSTRUCTURE
     1 <0>         1 GROUP 0 A     ****
