@<TRIPOS>MOLECULE
AlkEthOH_r1014
   23    23     1     0     0
SMALL
USER_CHARGES

@<TRIPOS>ATOM
      1 C1         -0.8963    1.0253    1.0211 CT        1 <0>       -0.11109
      2 C2         -1.1687   -0.2872    1.7447 CT        1 <0>        0.12327
      3 C3          0.1528   -1.5300    0.2316 CT        1 <0>        0.09683
      4 C4          0.4313    0.9655    0.2509 CT        1 <0>       -0.05225
      5 C5          0.5056   -0.3082   -0.6300 CT        1 <0>        0.12475
      6 C6          0.6616    2.2736   -0.5112 CT        1 <0>       -0.08685
      7 C7         -0.4068   -0.2566   -1.8634 CT        1 <0>       -0.11756
      8 O1         -1.1288   -1.3880    0.8393 OS        1 <0>       -0.40728
      9 O2          1.8493   -0.4945   -1.0830 OH        1 <0>       -0.59668
     10 H1         -1.7166    1.2257    0.3212 HC        1 <0>        0.05291
     11 H2         -0.8818    1.8489    1.7442 HC        1 <0>        0.05291
     12 H3         -0.4455   -0.4532    2.5519 H1        1 <0>        0.04805
     13 H4         -2.1653   -0.2623    2.1969 H1        1 <0>        0.04805
     14 H5          0.1395   -2.4402   -0.3794 H1        1 <0>        0.05297
     15 H6          0.9115   -1.7026    1.0063 H1        1 <0>        0.05297
     16 H7          1.2433    0.8989    0.9900 HC        1 <0>        0.06160
     17 H8         -0.1141    2.3996   -1.2629 HC        1 <0>        0.03923
     18 H9          1.6334    2.2461   -0.9982 HC        1 <0>        0.03923
     19 H10         0.6300    3.1106    0.1823 HC        1 <0>        0.03923
     20 H11        -0.1505    0.6096   -2.4664 HC        1 <0>        0.04699
     21 H12        -1.4422   -0.1827   -1.5440 HC        1 <0>        0.04699
     22 H13        -0.2717   -1.1603   -2.4507 HC        1 <0>        0.04699
     23 H14         1.8514   -1.3165   -1.5949 HO        1 <0>        0.39874
@<TRIPOS>BOND
     1    1    2 1
     2    1    4 1
     3    2    8 1
     4    3    5 1
     5    3    8 1
     6    4    5 1
     7    4    6 1
     8    5    7 1
     9    5    9 1
    10    1   10 1
    11    1   11 1
    12    2   12 1
    13    2   13 1
    14    3   14 1
    15    3   15 1
    16    4   16 1
    17    6   17 1
    18    6   18 1
    19    6   19 1
    20    7   20 1
    21    7   21 1
    22    7   22 1
    23    9   23 1
@<TRIPOS>SUBSTRUCTURE
     1 <0>         1 GROUP 0 A     ****
