@<TRIPOS>MOLECULE
AlkEthOH_r944
   29    29     1     0     0
SMALL
USER_CHARGES

@<TRIPOS>ATOM
      1 C1          0.1989    0.5558    2.2424 CT        1 <0>       -0.05934
      2 C2          1.1454   -0.5766    1.8318 CT        1 <0>       -0.11656
      3 C3         -0.6577    1.2106    1.1490 CT        1 <0>       -0.11158
      4 C4          2.2814   -0.1535    0.9017 CT        1 <0>        0.13757
      5 C5          1.2934   -0.6064   -1.2378 CT        1 <0>        0.11344
      6 C6         -1.6109    0.2477    0.4236 CT        1 <0>        0.14903
      7 C7         -0.1791   -0.2755   -1.4915 CT        1 <0>        0.11611
      8 C8         -2.6758    0.9933   -0.3817 CT        1 <0>       -0.12455
      9 C9         -0.6893   -1.0273   -2.7156 CT        1 <0>       -0.10373
     10 O1          1.8413    0.3644   -0.3464 OS        1 <0>       -0.42797
     11 O2         -0.9475   -0.7324   -0.3755 OS        1 <0>       -0.42715
     12 H1         -0.4767    0.1642    3.0140 HC        1 <0>        0.03427
     13 H2          0.7873    1.3429    2.7310 HC        1 <0>        0.03427
     14 H3          1.5995   -0.9785    2.7467 HC        1 <0>        0.05483
     15 H4          0.5759   -1.4027    1.3975 HC        1 <0>        0.05483
     16 H5         -1.2588    1.9882    1.6390 HC        1 <0>        0.05497
     17 H6         -0.0150    1.7394    0.4397 HC        1 <0>        0.05497
     18 H7          2.8654    0.6367    1.3865 H1        1 <0>        0.04241
     19 H8          2.9685   -0.9905    0.7291 H1        1 <0>        0.04241
     20 H9          1.4180   -1.6261   -0.8544 H1        1 <0>        0.05018
     21 H10         1.8618   -0.5227   -2.1701 H1        1 <0>        0.05018
     22 H11        -2.1482   -0.3246    1.1900 H1        1 <0>        0.06858
     23 H12        -0.2956    0.8010   -1.6521 H1        1 <0>        0.05906
     24 H13        -2.1997    1.5827   -1.1627 HC        1 <0>        0.04187
     25 H14        -3.2363    1.6552    0.2752 HC        1 <0>        0.04187
     26 H15        -3.3582    0.2789   -0.8378 HC        1 <0>        0.04187
     27 H16        -0.5778   -2.1009   -2.5659 HC        1 <0>        0.04272
     28 H17        -0.1211   -0.7315   -3.5971 HC        1 <0>        0.04272
     29 H18        -1.7423   -0.7997   -2.8796 HC        1 <0>        0.04272
@<TRIPOS>BOND
     1    1    2 1
     2    1    3 1
     3    2    4 1
     4    3    6 1
     5    4   10 1
     6    5    7 1
     7    5   10 1
     8    6    8 1
     9    6   11 1
    10    7    9 1
    11    7   11 1
    12    1   12 1
    13    1   13 1
    14    2   14 1
    15    2   15 1
    16    3   16 1
    17    3   17 1
    18    4   18 1
    19    4   19 1
    20    5   20 1
    21    5   21 1
    22    6   22 1
    23    7   23 1
    24    8   24 1
    25    8   25 1
    26    8   26 1
    27    9   27 1
    28    9   28 1
    29    9   29 1
@<TRIPOS>SUBSTRUCTURE
     1 <0>         1 GROUP 0 A     ****
