@<TRIPOS>MOLECULE
AlkEthOH_r734
   14    14     1     0     0
SMALL
USER_CHARGES

@<TRIPOS>ATOM
      1 C1         -0.5521    1.2015   -0.9404 CT        1 <0>        0.32911
      2 C2          0.1390   -0.3026    0.2369 CT        1 <0>        0.35393
      3 C3         -0.4943   -0.6409    1.5680 CT        1 <0>       -0.11177
      4 C4          1.3211   -1.1590   -0.1589 CT        1 <0>       -0.11177
      5 O1         -0.8288   -0.1956   -0.8129 OS        1 <0>       -0.46628
      6 O2          0.4151    1.0965    0.1075 OS        1 <0>       -0.46628
      7 H1         -0.1145    1.4672   -1.9046 H2        1 <0>        0.06250
      8 H2         -1.4027    1.8339   -0.6786 H2        1 <0>        0.06250
      9 H3         -1.3375    0.0253    1.7724 HC        1 <0>        0.05801
     10 H4          0.2335   -0.5342    2.3776 HC        1 <0>        0.05801
     11 H5         -0.8613   -1.6714    1.5677 HC        1 <0>        0.05801
     12 H6          1.7142   -0.8455   -1.1305 HC        1 <0>        0.05801
     13 H7          1.0273   -2.2103   -0.2290 HC        1 <0>        0.05801
     14 H8          2.1222   -1.0733    0.5811 HC        1 <0>        0.05801
@<TRIPOS>BOND
     1    1    5 1
     2    1    6 1
     3    2    3 1
     4    2    4 1
     5    2    5 1
     6    2    6 1
     7    1    7 1
     8    1    8 1
     9    3    9 1
    10    3   10 1
    11    3   11 1
    12    4   12 1
    13    4   13 1
    14    4   14 1
@<TRIPOS>SUBSTRUCTURE
     1 <0>         1 GROUP 0 A     ****
