@<TRIPOS>MOLECULE
AlkEthOH_r203
   27    27     1     0     0
SMALL
USER_CHARGES

@<TRIPOS>ATOM
      1 C1          1.1752    0.3589   -2.2253 CT        1 <0>       -0.12334
      2 C2          1.2540   -1.0816   -1.7246 CT        1 <0>        0.12772
      3 C3          0.0620    1.1728   -1.5684 CT        1 <0>        0.13203
      4 C4          0.5322   -1.6319    0.4887 CT        1 <0>        0.10550
      5 C5         -0.7659   -0.8110    0.4949 CT        1 <0>        0.08558
      6 C6         -0.5859    0.7125    0.7444 CT        1 <0>        0.17230
      7 C7          0.0210    0.9741    2.1353 CT        1 <0>       -0.10049
      8 C8         -1.9407    1.4432    0.6875 CT        1 <0>       -0.10049
      9 O1          1.5616   -1.0979   -0.3340 OS        1 <0>       -0.39251
     10 O2          0.3286    1.3239   -0.1782 OS        1 <0>       -0.40786
     11 O3         -1.6422   -1.3629    1.4797 OH        1 <0>       -0.59093
     12 H1          2.1326    0.8503   -2.0114 HC        1 <0>        0.06014
     13 H2          1.0316    0.3571   -3.3112 HC        1 <0>        0.06014
     14 H3          0.3383   -1.6364   -1.9587 H1        1 <0>        0.03768
     15 H4          2.0768   -1.5883   -2.2405 H1        1 <0>        0.03768
     16 H5          0.0624    2.1786   -2.0023 H1        1 <0>        0.03869
     17 H6         -0.9183    0.7355   -1.7780 H1        1 <0>        0.03869
     18 H7          0.9319   -1.7040    1.5068 H1        1 <0>        0.05002
     19 H8          0.3243   -2.6673    0.1893 H1        1 <0>        0.05002
     20 H9         -1.2616   -0.9557   -0.4719 H1        1 <0>        0.02928
     21 H10         0.1342    2.0431    2.2798 HC        1 <0>        0.04830
     22 H11         0.9903    0.4914    2.1980 HC        1 <0>        0.04830
     23 H12        -0.6396    0.5697    2.8946 HC        1 <0>        0.04830
     24 H13        -1.7821    2.5011    0.8649 HC        1 <0>        0.04830
     25 H14        -2.5960    1.0374    1.4501 HC        1 <0>        0.04830
     26 H15        -2.3826    1.2974   -0.2919 HC        1 <0>        0.04830
     27 H16        -1.8035   -2.2812    1.2168 HO        1 <0>        0.40035
@<TRIPOS>BOND
     1    1    2 1
     2    1    3 1
     3    2    9 1
     4    3   10 1
     5    4    5 1
     6    4    9 1
     7    5    6 1
     8    5   11 1
     9    6    7 1
    10    6    8 1
    11    6   10 1
    12    1   12 1
    13    1   13 1
    14    2   14 1
    15    2   15 1
    16    3   16 1
    17    3   17 1
    18    4   18 1
    19    4   19 1
    20    5   20 1
    21    7   21 1
    22    7   22 1
    23    7   23 1
    24    8   24 1
    25    8   25 1
    26    8   26 1
    27   11   27 1
@<TRIPOS>SUBSTRUCTURE
     1 <0>         1 GROUP 0 A     ****
