@<TRIPOS>MOLECULE
AlkEthOH_r49
   20    20     1     0     0
SMALL
USER_CHARGES

@<TRIPOS>ATOM
      1 C1          0.7797    1.7543   -0.0953 CT        1 <0>       -0.07263
      2 C2          0.6184    0.9908   -1.4108 CT        1 <0>       -0.07451
      3 C3          1.3381    0.8842    1.0282 CT        1 <0>       -0.11564
      4 C4         -0.4857   -0.0642   -1.4229 CT        1 <0>       -0.12663
      5 C5          0.2973    0.0264    1.7440 CT        1 <0>        0.13279
      6 C6         -0.4234   -1.0599   -0.2661 CT        1 <0>        0.33508
      7 O1         -0.7918   -0.3985    0.9382 OS        1 <0>       -0.39738
      8 O2         -1.3326   -2.1330   -0.5153 OH        1 <0>       -0.58887
      9 H1          1.4897    2.5717   -0.2736 HC        1 <0>        0.04914
     10 H2         -0.1668    2.2199    0.2029 HC        1 <0>        0.04914
     11 H3          0.4083    1.7132   -2.2092 HC        1 <0>        0.03854
     12 H4          1.5716    0.5152   -1.6738 HC        1 <0>        0.03854
     13 H5          2.1275    0.2361    0.6273 HC        1 <0>        0.04408
     14 H6          1.8303    1.5181    1.7761 HC        1 <0>        0.04408
     15 H7         -1.4574    0.4471   -1.4012 HC        1 <0>        0.05682
     16 H8         -0.4498   -0.6035   -2.3778 HC        1 <0>        0.05682
     17 H9          0.7733   -0.8492    2.2010 H1        1 <0>        0.04906
     18 H10        -0.1375    0.6082    2.5643 H1        1 <0>        0.04906
     19 H11         0.5885   -1.5064   -0.1809 H2        1 <0>        0.02855
     20 H12        -1.0484   -2.5455   -1.3448 HO        1 <0>        0.40396
@<TRIPOS>BOND
     1    1    2 1
     2    1    3 1
     3    2    4 1
     4    3    5 1
     5    4    6 1
     6    5    7 1
     7    6    7 1
     8    6    8 1
     9    1    9 1
    10    1   10 1
    11    2   11 1
    12    2   12 1
    13    3   13 1
    14    3   14 1
    15    4   15 1
    16    4   16 1
    17    5   17 1
    18    5   18 1
    19    6   19 1
    20    8   20 1
@<TRIPOS>SUBSTRUCTURE
     1 <0>         1 GROUP 0 A     ****
