@<TRIPOS>MOLECULE
AlkEthOH_r1036
   27    27     1     0     0
SMALL
USER_CHARGES

@<TRIPOS>ATOM
      1 C1         -1.8095    0.7652   -0.9228 CT        1 <0>       -0.09246
      2 C2          0.2250   -0.8146   -0.8095 CT        1 <0>       -0.12641
      3 C3         -1.8726    1.1213    0.5597 CT        1 <0>        0.13383
      4 C4         -0.3000    0.1384    2.0422 CT        1 <0>        0.33443
      5 C5         -0.3949    0.4464   -1.4547 CT        1 <0>       -0.05110
      6 C6          1.2516   -0.5417    0.3125 CT        1 <0>        0.35570
      7 C7         -0.4749    0.2569   -2.9756 CT        1 <0>       -0.09270
      8 C8          2.5696   -0.0380   -0.2908 CT        1 <0>       -0.11386
      9 O1         -1.5330   -0.0139    1.3478 OS        1 <0>       -0.45038
     10 O2          0.8211    0.4686    1.2276 OS        1 <0>       -0.44464
     11 O3          1.5175   -1.7887    0.9637 OH        1 <0>       -0.62751
     12 H1         -2.4622   -0.0974   -1.1103 HC        1 <0>        0.04759
     13 H2         -2.2227    1.6082   -1.4907 HC        1 <0>        0.04759
     14 H3         -0.5711   -1.4703   -0.4328 HC        1 <0>        0.05866
     15 H4          0.7241   -1.4302   -1.5714 HC        1 <0>        0.05866
     16 H5         -1.2478    1.9935    0.7869 H1        1 <0>        0.04444
     17 H6         -2.9042    1.3883    0.8133 H1        1 <0>        0.04444
     18 H7         -0.4177    0.9367    2.7836 H2        1 <0>        0.07327
     19 H8         -0.1016   -0.7818    2.6014 H2        1 <0>        0.07327
     20 H9          0.2435    1.3189   -1.2739 HC        1 <0>        0.05683
     21 H10        -1.1012   -0.6016   -3.2007 HC        1 <0>        0.03380
     22 H11         0.5227    0.0918   -3.3724 HC        1 <0>        0.03380
     23 H12        -0.9027    1.1466   -3.4289 HC        1 <0>        0.03380
     24 H13         3.2836    0.1506    0.5059 HC        1 <0>        0.05175
     25 H14         2.3881    0.8817   -0.8397 HC        1 <0>        0.05175
     26 H15         2.9695   -0.7898   -0.9654 HC        1 <0>        0.05175
     27 H16         1.8725   -2.3781    0.2829 HO        1 <0>        0.41370
@<TRIPOS>BOND
     1    1    3 1
     2    1    5 1
     3    2    5 1
     4    2    6 1
     5    3    9 1
     6    4    9 1
     7    4   10 1
     8    5    7 1
     9    6    8 1
    10    6   10 1
    11    6   11 1
    12    1   12 1
    13    1   13 1
    14    2   14 1
    15    2   15 1
    16    3   16 1
    17    3   17 1
    18    4   18 1
    19    4   19 1
    20    5   20 1
    21    7   21 1
    22    7   22 1
    23    7   23 1
    24    8   24 1
    25    8   25 1
    26    8   26 1
    27   11   27 1
@<TRIPOS>SUBSTRUCTURE
     1 <0>         1 GROUP 0 A     ****
