@<TRIPOS>MOLECULE
AlkEthOH_r894
   32    32     1     0     0
SMALL
USER_CHARGES

@<TRIPOS>ATOM
      1 C1         -2.0948    1.5915    0.4228 CT        1 <0>       -0.06989
      2 C2         -2.2073    0.1556   -0.0846 CT        1 <0>       -0.08222
      3 C3         -0.7036    2.1819    0.6472 CT        1 <0>       -0.07187
      4 C4         -1.6775   -0.1037   -1.4964 CT        1 <0>       -0.05917
      5 C5          0.1983    1.4260    1.6311 CT        1 <0>       -0.09097
      6 C6         -0.1571   -0.1820   -1.7056 CT        1 <0>       -0.08225
      7 C7          1.2032    0.4780    0.9560 CT        1 <0>        0.15576
      8 C8          0.6021   -1.1478   -0.7751 CT        1 <0>        0.35734
      9 C9          2.3009    0.0959    1.9481 CT        1 <0>       -0.10966
     10 C10         2.0473   -1.3440   -1.2508 CT        1 <0>       -0.14895
     11 O1          0.5408   -0.7295    0.5892 OS        1 <0>       -0.46246
     12 O2         -0.0525   -2.4216   -0.8819 OH        1 <0>       -0.59067
     13 H1         -2.6352    2.2497   -0.2699 HC        1 <0>        0.03313
     14 H2         -2.6430    1.6505    1.3726 HC        1 <0>        0.03313
     15 H3         -1.7980   -0.5503    0.6418 HC        1 <0>        0.05241
     16 H4         -3.2819   -0.0751   -0.1105 HC        1 <0>        0.05241
     17 H5         -0.1951    2.3611   -0.3037 HC        1 <0>        0.03429
     18 H6         -0.8665    3.1844    1.0673 HC        1 <0>        0.03429
     19 H7         -2.1076   -1.0554   -1.8362 HC        1 <0>        0.04152
     20 H8         -2.0809    0.6575   -2.1762 HC        1 <0>        0.04152
     21 H9          0.7667    2.1830    2.1873 HC        1 <0>        0.05183
     22 H10        -0.4143    0.8850    2.3624 HC        1 <0>        0.05183
     23 H11        -0.0098   -0.5142   -2.7430 HC        1 <0>        0.04663
     24 H12         0.2717    0.8212   -1.6577 HC        1 <0>        0.04663
     25 H13         1.6664    0.9811    0.1014 H1        1 <0>        0.04168
     26 H14         1.8616   -0.4070    2.8078 HC        1 <0>        0.04263
     27 H15         2.8207    0.9910    2.2849 HC        1 <0>        0.04263
     28 H16         3.0139   -0.5726    1.4689 HC        1 <0>        0.04263
     29 H17         2.5600   -2.0275   -0.5796 HC        1 <0>        0.04894
     30 H18         2.5608   -0.3866   -1.2538 HC        1 <0>        0.04894
     31 H19         2.0450   -1.7570   -2.2557 HC        1 <0>        0.04894
     32 H20         0.4312   -3.0185   -0.2951 HO        1 <0>        0.41900
@<TRIPOS>BOND
     1    1    2 1
     2    1    3 1
     3    2    4 1
     4    3    5 1
     5    4    6 1
     6    5    7 1
     7    6    8 1
     8    7    9 1
     9    7   11 1
    10    8   10 1
    11    8   11 1
    12    8   12 1
    13    1   13 1
    14    1   14 1
    15    2   15 1
    16    2   16 1
    17    3   17 1
    18    3   18 1
    19    4   19 1
    20    4   20 1
    21    5   21 1
    22    5   22 1
    23    6   23 1
    24    6   24 1
    25    7   25 1
    26    9   26 1
    27    9   27 1
    28    9   28 1
    29   10   29 1
    30   10   30 1
    31   10   31 1
    32   12   32 1
@<TRIPOS>SUBSTRUCTURE
     1 <0>         1 GROUP 0 A     ****
