@<TRIPOS>MOLECULE
AlkEthOH_r800
   20    20     1     0     0
SMALL
USER_CHARGES

@<TRIPOS>ATOM
      1 C1          0.4890    0.3238    0.8922 CT        1 <0>       -0.10000
      2 C2         -0.8940   -0.7724   -0.6704 CT        1 <0>        0.10193
      3 C3         -0.1438    1.3506   -0.0370 CT        1 <0>        0.13775
      4 C4          0.4397   -0.9302    0.0425 CT        1 <0>        0.11711
      5 C5         -0.8119    2.4975    0.6971 CT        1 <0>       -0.09903
      6 C6          0.5586   -2.2242    0.8293 CT        1 <0>       -0.11389
      7 O1         -1.1184    0.6419   -0.8204 OS        1 <0>       -0.42415
      8 O2          1.4809   -0.8871   -0.9332 OH        1 <0>       -0.59119
      9 H1          1.5007    0.6216    1.1846 HC        1 <0>        0.06681
     10 H2         -0.1178    0.1993    1.7975 HC        1 <0>        0.06681
     11 H3         -0.9106   -1.2309   -1.6636 H1        1 <0>        0.05000
     12 H4         -1.7274   -1.1671   -0.0796 H1        1 <0>        0.05000
     13 H5          0.6048    1.7475   -0.7331 H1        1 <0>        0.06361
     14 H6         -1.5610    2.1165    1.3949 HC        1 <0>        0.04405
     15 H7         -1.3048    3.1663   -0.0121 HC        1 <0>        0.04405
     16 H8         -0.0714    3.0706    1.2597 HC        1 <0>        0.04405
     17 H9          0.5153   -3.0812    0.1547 HC        1 <0>        0.04708
     18 H10        -0.2577   -2.3039    1.5495 HC        1 <0>        0.04708
     19 H11         1.5066   -2.2512    1.3697 HC        1 <0>        0.04708
     20 H12         1.4080   -1.7050   -1.4480 HO        1 <0>        0.40085
@<TRIPOS>BOND
     1    1    3 1
     2    1    4 1
     3    2    4 1
     4    2    7 1
     5    3    5 1
     6    3    7 1
     7    4    6 1
     8    4    8 1
     9    1    9 1
    10    1   10 1
    11    2   11 1
    12    2   12 1
    13    3   13 1
    14    5   14 1
    15    5   15 1
    16    5   16 1
    17    6   17 1
    18    6   18 1
    19    6   19 1
    20    8   20 1
@<TRIPOS>SUBSTRUCTURE
     1 <0>         1 GROUP 0 A     ****
