@<TRIPOS>MOLECULE
AlkEthOH_r63
   27    27     1     0     0
SMALL
USER_CHARGES

@<TRIPOS>ATOM
      1 C1         -1.4063   -1.1919    1.1270 CT        1 <0>       -0.07354
      2 C2         -0.9334   -1.6088   -0.2713 CT        1 <0>       -0.07345
      3 C3         -0.8291    0.1159    1.6834 CT        1 <0>       -0.07345
      4 C4          0.5857   -1.7386   -0.4111 CT        1 <0>       -0.07345
      5 C5         -1.0587    1.3379    0.7900 CT        1 <0>       -0.07345
      6 C6          1.1879   -0.9147   -1.5561 CT        1 <0>       -0.07345
      7 C7          0.2185    2.1064    0.4286 CT        1 <0>       -0.07345
      8 C8          0.9029    0.5924   -1.5388 CT        1 <0>       -0.07345
      9 C9          1.3327    1.3014   -0.2517 CT        1 <0>       -0.07345
     10 H1         -2.5008   -1.1139    1.1086 HC        1 <0>        0.03673
     11 H2         -1.1705   -1.9978    1.8333 HC        1 <0>        0.03673
     12 H3         -1.3802   -2.5889   -0.4869 HC        1 <0>        0.03673
     13 H4         -1.3541   -0.9382   -1.0262 HC        1 <0>        0.03673
     14 H5         -1.3187    0.3027    2.6483 HC        1 <0>        0.03673
     15 H6          0.2290   -0.0141    1.9279 HC        1 <0>        0.03673
     16 H7          1.0998   -1.5110    0.5272 HC        1 <0>        0.03673
     17 H8          0.8208   -2.7928   -0.6103 HC        1 <0>        0.03673
     18 H9         -1.6107    1.0777   -0.1179 HC        1 <0>        0.03673
     19 H10        -1.7160    2.0340    1.3277 HC        1 <0>        0.03673
     20 H11         2.2747   -1.0675   -1.5529 HC        1 <0>        0.03673
     21 H12         0.8265   -1.3201   -2.5098 HC        1 <0>        0.03673
     22 H13        -0.0591    2.9442   -0.2233 HC        1 <0>        0.03673
     23 H14         0.6296    2.5553    1.3418 HC        1 <0>        0.03673
     24 H15         1.4582    1.0382   -2.3749 HC        1 <0>        0.03673
     25 H16        -0.1494    0.7788   -1.7720 HC        1 <0>        0.03673
     26 H17         2.1361    2.0067   -0.5031 HC        1 <0>        0.03673
     27 H18         1.7849    0.6068    0.4620 HC        1 <0>        0.03673
@<TRIPOS>BOND
     1    1    2 1
     2    1    3 1
     3    2    4 1
     4    3    5 1
     5    4    6 1
     6    5    7 1
     7    6    8 1
     8    7    9 1
     9    8    9 1
    10    1   10 1
    11    1   11 1
    12    2   12 1
    13    2   13 1
    14    3   14 1
    15    3   15 1
    16    4   16 1
    17    4   17 1
    18    5   18 1
    19    5   19 1
    20    6   20 1
    21    6   21 1
    22    7   22 1
    23    7   23 1
    24    8   24 1
    25    8   25 1
    26    9   26 1
    27    9   27 1
@<TRIPOS>SUBSTRUCTURE
     1 <0>         1 GROUP 0 A     ****
