@<TRIPOS>MOLECULE
AlkEthOH_r623
   28    28     1     0     0
SMALL
USER_CHARGES

@<TRIPOS>ATOM
      1 C1          0.1171    1.1983    1.9871 CT        1 <0>       -0.07213
      2 C2          0.9501   -0.0569    2.2798 CT        1 <0>       -0.11206
      3 C3         -1.3298    0.9147    1.5584 CT        1 <0>       -0.11183
      4 C4          2.1906   -0.1931    1.3881 CT        1 <0>        0.13060
      5 C5          1.1726   -1.0176   -0.6178 CT        1 <0>        0.07903
      6 C6         -1.4823    0.0203    0.3240 CT        1 <0>        0.34543
      7 C7          0.0682   -0.3925   -1.4879 CT        1 <0>        0.33982
      8 C8          0.6859    0.3853   -2.6538 CT        1 <0>       -0.11210
      9 O1          1.9234    0.0199    0.0057 OS        1 <0>       -0.40675
     10 O2         -0.6949    0.5593   -0.7326 OS        1 <0>       -0.38225
     11 O3         -2.8622    0.0091   -0.0379 OH        1 <0>       -0.59440
     12 O4         -0.7387   -1.4467   -2.0129 OH        1 <0>       -0.61513
     13 H1          0.0756    1.8039    2.9017 HC        1 <0>        0.05633
     14 H2          0.6044    1.8335    1.2383 HC        1 <0>        0.05633
     15 H3          1.2886   -0.0271    3.3231 HC        1 <0>        0.04221
     16 H4          0.3343   -0.9581    2.2006 HC        1 <0>        0.04221
     17 H5         -1.8859    0.4705    2.3937 HC        1 <0>        0.05177
     18 H6         -1.8160    1.8797    1.3620 HC        1 <0>        0.05177
     19 H7          2.9221    0.5668    1.6848 H1        1 <0>        0.04791
     20 H8          2.6684   -1.1694    1.5304 H1        1 <0>        0.04791
     21 H9          0.7548   -1.7194    0.1116 H1        1 <0>        0.04525
     22 H10         1.8543   -1.6118   -1.2382 H1        1 <0>        0.04525
     23 H11        -1.2072   -1.0070    0.5785 H2        1 <0>        0.03655
     24 H12        -0.1040    0.8216   -3.2604 HC        1 <0>        0.05873
     25 H13         1.2805   -0.2876   -3.2669 HC        1 <0>        0.05873
     26 H14         1.3223    1.1776   -2.2672 HC        1 <0>        0.05873
     27 H15        -3.3434   -0.3469    0.7246 HO        1 <0>        0.39942
     28 H16        -0.1482   -2.0084   -2.5373 HO        1 <0>        0.41267
@<TRIPOS>BOND
     1    1    2 1
     2    1    3 1
     3    2    4 1
     4    3    6 1
     5    4    9 1
     6    5    7 1
     7    5    9 1
     8    6   10 1
     9    6   11 1
    10    7    8 1
    11    7   10 1
    12    7   12 1
    13    1   13 1
    14    1   14 1
    15    2   15 1
    16    2   16 1
    17    3   17 1
    18    3   18 1
    19    4   19 1
    20    4   20 1
    21    5   21 1
    22    5   22 1
    23    6   23 1
    24    8   24 1
    25    8   25 1
    26    8   26 1
    27   11   27 1
    28   12   28 1
@<TRIPOS>SUBSTRUCTURE
     1 <0>         1 GROUP 0 A     ****
