@<TRIPOS>MOLECULE
AlkEthOH_r232
   29    29     1     0     0
SMALL
USER_CHARGES

@<TRIPOS>ATOM
      1 C1          1.7108    0.9703    0.9857 CT        1 <0>       -0.10362
      2 C2          1.8341   -0.5044    0.6051 CT        1 <0>       -0.10367
      3 C3         -0.2554   -0.7420   -0.8552 CT        1 <0>       -0.08570
      4 C4          0.9225    1.7959   -0.0173 CT        1 <0>        0.13509
      5 C5          0.5073   -1.2580    0.3860 CT        1 <0>        0.16222
      6 C6         -1.0559    0.5785   -0.7262 CT        1 <0>        0.16756
      7 C7          0.8198   -2.7507    0.1889 CT        1 <0>       -0.12588
      8 C8         -1.2575    1.2059   -2.1181 CT        1 <0>       -0.10395
      9 C9         -2.4557    0.3084   -0.1441 CT        1 <0>       -0.10395
     10 O1         -0.4649    1.5429    0.1448 OS        1 <0>       -0.40931
     11 O2         -0.3050   -1.1467    1.5503 OH        1 <0>       -0.58338
     12 H1          1.2463    1.0489    1.9763 HC        1 <0>        0.05219
     13 H2          2.7224    1.3848    1.0700 HC        1 <0>        0.05219
     14 H3          2.4602   -0.5900   -0.2927 HC        1 <0>        0.04175
     15 H4          2.3901   -0.9914    1.4177 HC        1 <0>        0.04175
     16 H5          0.4726   -0.6472   -1.6734 HC        1 <0>        0.04916
     17 H6         -0.9559   -1.5172   -1.1970 HC        1 <0>        0.04916
     18 H7          1.0725    2.8558    0.2150 H1        1 <0>        0.04199
     19 H8          1.2687    1.6397   -1.0437 H1        1 <0>        0.04199
     20 H9         -0.1071   -3.2927    0.0336 HC        1 <0>        0.04155
     21 H10         1.3218   -3.1306    1.0726 HC        1 <0>        0.04155
     22 H11         1.4628   -2.8702   -0.6768 HC        1 <0>        0.04155
     23 H12        -1.8183    2.1284   -2.0151 HC        1 <0>        0.04386
     24 H13        -1.8054    0.5117   -2.7456 HC        1 <0>        0.04386
     25 H14        -0.2886    1.4129   -2.5590 HC        1 <0>        0.04386
     26 H15        -2.9957    1.2457   -0.0636 HC        1 <0>        0.04386
     27 H16        -2.3533   -0.1407    0.8379 HC        1 <0>        0.04386
     28 H17        -2.9915   -0.3675   -0.8020 HC        1 <0>        0.04386
     29 H18         0.1987   -1.5417    2.2795 HO        1 <0>        0.39660
@<TRIPOS>BOND
     1    1    2 1
     2    1    4 1
     3    2    5 1
     4    3    5 1
     5    3    6 1
     6    4   10 1
     7    5    7 1
     8    5   11 1
     9    6    8 1
    10    6    9 1
    11    6   10 1
    12    1   12 1
    13    1   13 1
    14    2   14 1
    15    2   15 1
    16    3   16 1
    17    3   17 1
    18    4   18 1
    19    4   19 1
    20    7   20 1
    21    7   21 1
    22    7   22 1
    23    8   23 1
    24    8   24 1
    25    8   25 1
    26    9   26 1
    27    9   27 1
    28    9   28 1
    29   11   29 1
@<TRIPOS>SUBSTRUCTURE
     1 <0>         1 GROUP 0 A     ****
