@<TRIPOS>MOLECULE
AlkEthOH_r537
   22    22     1     0     0
SMALL
USER_CHARGES

@<TRIPOS>ATOM
      1 C1          0.1645    1.5022   -0.5577 CT        1 <0>       -0.16674
      2 C2          1.5844    0.9577   -0.6557 CT        1 <0>        0.13055
      3 C3          1.1647   -1.4032   -0.7153 CT        1 <0>        0.07289
      4 C4         -0.2990   -1.3199   -0.2951 CT        1 <0>        0.31288
      5 C5         -0.6718    0.8984    0.5881 CT        1 <0>        0.35519
      6 C6         -0.3928    1.6431    1.8981 CT        1 <0>       -0.11873
      7 O1          1.6076   -0.2474   -1.4177 OS        1 <0>       -0.40794
      8 O2         -0.3895   -0.4770    0.8471 OS        1 <0>       -0.44956
      9 O3         -0.7172   -2.6373    0.0559 OH        1 <0>       -0.58144
     10 O4         -2.0509    1.0834    0.2524 OH        1 <0>       -0.61276
     11 H1          0.1929    2.5932   -0.4411 HC        1 <0>        0.06830
     12 H2         -0.3492    1.3261   -1.5126 HC        1 <0>        0.06830
     13 H3          2.1945    1.6781   -1.2110 H1        1 <0>        0.05453
     14 H4          2.0614    0.8145    0.3199 H1        1 <0>        0.05453
     15 H5          1.8180   -1.5704    0.1500 H1        1 <0>        0.06299
     16 H6          1.3086   -2.2570   -1.3868 H1        1 <0>        0.06299
     17 H7         -0.9367   -0.9664   -1.1136 H2        1 <0>        0.10411
     18 H8         -0.9876    1.2086    2.6974 HC        1 <0>        0.05509
     19 H9         -0.6543    2.6919    1.7831 HC        1 <0>        0.05509
     20 H10         0.6621    1.5592    2.1467 HC        1 <0>        0.05509
     21 H11        -0.1471   -2.9216    0.7868 HO        1 <0>        0.41368
     22 H12        -2.1831    2.0389    0.1706 HO        1 <0>        0.41096
@<TRIPOS>BOND
     1    1    2 1
     2    1    5 1
     3    2    7 1
     4    3    4 1
     5    3    7 1
     6    4    8 1
     7    4    9 1
     8    5    6 1
     9    5    8 1
    10    5   10 1
    11    1   11 1
    12    1   12 1
    13    2   13 1
    14    2   14 1
    15    3   15 1
    16    3   16 1
    17    4   17 1
    18    6   18 1
    19    6   19 1
    20    6   20 1
    21    9   21 1
    22   10   22 1
@<TRIPOS>SUBSTRUCTURE
     1 <0>         1 GROUP 0 A     ****
