@<TRIPOS>MOLECULE
AlkEthOH_r16
   24    24     1     0     0
SMALL
USER_CHARGES

@<TRIPOS>ATOM
      1 C1          1.1932    0.4660    1.5863 CT        1 <0>       -0.10848
      2 C2          1.5112   -0.8491    0.8766 CT        1 <0>       -0.10517
      3 C3          0.3368   -0.1602   -1.3194 CT        1 <0>       -0.10998
      4 C4         -0.2152    0.5662    2.1661 CT        1 <0>        0.13148
      5 C5         -1.2710    1.2592    0.1364 CT        1 <0>        0.12934
      6 C6          0.6038   -1.2652   -0.2885 CT        1 <0>        0.14828
      7 C7         -1.0306    0.5265   -1.1818 CT        1 <0>        0.12273
      8 O1         -1.2527    0.3419    1.2206 OS        1 <0>       -0.42229
      9 O2          1.2734   -2.3500   -0.9446 OH        1 <0>       -0.61107
     10 O3         -1.1488    1.4649   -2.2517 OH        1 <0>       -0.60437
     11 H1          1.9110    0.5986    2.4055 HC        1 <0>        0.05018
     12 H2          1.3790    1.2959    0.8965 HC        1 <0>        0.05018
     13 H3          2.5479   -0.7951    0.5163 HC        1 <0>        0.04485
     14 H4          1.5166   -1.6629    1.6142 HC        1 <0>        0.04485
     15 H5          1.1369    0.5907   -1.3057 HC        1 <0>        0.06073
     16 H6          0.3898   -0.5802   -2.3337 HC        1 <0>        0.06073
     17 H7         -0.3355   -0.1841    2.9551 H1        1 <0>        0.04818
     18 H8         -0.3636    1.5466    2.6337 H1        1 <0>        0.04818
     19 H9         -0.5765    2.0978    0.2655 H1        1 <0>        0.05609
     20 H10        -2.2697    1.7117    0.1131 H1        1 <0>        0.05609
     21 H11        -0.3338   -1.6808    0.0954 H1        1 <0>        0.05684
     22 H12        -1.8083   -0.2346   -1.3208 H1        1 <0>        0.04857
     23 H13         1.3696   -3.0463   -0.2800 HO        1 <0>        0.39875
     24 H14        -1.0822    0.9539   -3.0722 HO        1 <0>        0.40531
@<TRIPOS>BOND
     1    1    2 1
     2    1    4 1
     3    2    6 1
     4    3    6 1
     5    3    7 1
     6    4    8 1
     7    5    7 1
     8    5    8 1
     9    6    9 1
    10    7   10 1
    11    1   11 1
    12    1   12 1
    13    2   13 1
    14    2   14 1
    15    3   15 1
    16    3   16 1
    17    4   17 1
    18    4   18 1
    19    5   19 1
    20    5   20 1
    21    6   21 1
    22    7   22 1
    23    9   23 1
    24   10   24 1
@<TRIPOS>SUBSTRUCTURE
     1 <0>         1 GROUP 0 A     ****
