@<TRIPOS>MOLECULE
AlkEthOH_r1027
   25    25     1     0     0
SMALL
USER_CHARGES

@<TRIPOS>ATOM
      1 C1          0.8181   -0.3862    1.3085 CT        1 <0>       -0.10459
      2 C2         -1.0294   -0.4310   -1.2834 CT        1 <0>       -0.10454
      3 C3          1.2009   -1.4382    0.2754 CT        1 <0>        0.13323
      4 C4          0.3169   -0.8504   -1.8702 CT        1 <0>        0.13323
      5 C5         -0.6210    0.1414    1.1767 CT        1 <0>       -0.05198
      6 C6         -1.0134    0.6847   -0.2233 CT        1 <0>       -0.05198
      7 C7         -0.8786    1.1839    2.2735 CT        1 <0>       -0.09154
      8 C8         -0.2137    1.9084   -0.6779 CT        1 <0>       -0.09154
      9 O1          1.4202   -0.8126   -0.9793 OS        1 <0>       -0.41943
     10 H1          0.9351   -0.8271    2.3065 HC        1 <0>        0.04615
     11 H2          1.5217    0.4534    1.2472 HC        1 <0>        0.04615
     12 H3         -1.6777   -0.1277   -2.1162 HC        1 <0>        0.04615
     13 H4         -1.5176   -1.3155   -0.8535 HC        1 <0>        0.04615
     14 H5          2.1571   -1.8818    0.5735 H1        1 <0>        0.04233
     15 H6          0.4734   -2.2555    0.2114 H1        1 <0>        0.04233
     16 H7          0.2400   -1.8582   -2.2949 H1        1 <0>        0.04233
     17 H8          0.5682   -0.1839   -2.7029 H1        1 <0>        0.04233
     18 H9         -1.2932   -0.7013    1.3930 HC        1 <0>        0.03811
     19 H10        -2.0583    1.0176   -0.1374 HC        1 <0>        0.03811
     20 H11        -0.2378    2.0457    2.1108 HC        1 <0>        0.03650
     21 H12        -0.6608    0.7483    3.2444 HC        1 <0>        0.03650
     22 H13        -1.9191    1.4940    2.2401 HC        1 <0>        0.03650
     23 H14         0.8354    1.6414   -0.7818 HC        1 <0>        0.03650
     24 H15        -0.3112    2.7028    0.0585 HC        1 <0>        0.03650
     25 H16        -0.5926    2.2574   -1.6357 HC        1 <0>        0.03650
@<TRIPOS>BOND
     1    1    3 1
     2    1    5 1
     3    2    4 1
     4    2    6 1
     5    3    9 1
     6    4    9 1
     7    5    6 1
     8    5    7 1
     9    6    8 1
    10    1   10 1
    11    1   11 1
    12    2   12 1
    13    2   13 1
    14    3   14 1
    15    3   15 1
    16    4   16 1
    17    4   17 1
    18    5   18 1
    19    6   19 1
    20    7   20 1
    21    7   21 1
    22    7   22 1
    23    8   23 1
    24    8   24 1
    25    8   25 1
@<TRIPOS>SUBSTRUCTURE
     1 <0>         1 GROUP 0 A     ****
