@<TRIPOS>MOLECULE
AlkEthOH_r616
   27    27     1     0     0
SMALL
USER_CHARGES

@<TRIPOS>ATOM
      1 C1         -0.2182    1.9043   -1.1713 CT        1 <0>       -0.10623
      2 C2         -1.2090    0.7982   -1.5357 CT        1 <0>       -0.11742
      3 C3          1.2590    1.5312   -1.3168 CT        1 <0>        0.13007
      4 C4          1.4333    0.4421    0.8142 CT        1 <0>        0.10251
      5 C5         -1.0232   -0.5225   -0.7883 CT        1 <0>        0.33137
      6 C6          0.3375   -0.5552    1.2472 CT        1 <0>        0.13982
      7 C7          0.0712   -0.3491    2.7481 CT        1 <0>       -0.10196
      8 C8          0.7716   -2.0155    1.0396 CT        1 <0>       -0.10196
      9 O1          1.6672    0.3749   -0.5896 OS        1 <0>       -0.42530
     10 O2         -0.9200   -0.2771    0.6106 OS        1 <0>       -0.40632
     11 O3         -2.1692   -1.3312   -1.0579 OH        1 <0>       -0.60463
     12 H1         -0.4188    2.7748   -1.8082 HC        1 <0>        0.05463
     13 H2         -0.4242    2.2327   -0.1464 HC        1 <0>        0.05463
     14 H3         -2.2207    1.1797   -1.3423 HC        1 <0>        0.04998
     15 H4         -1.1732    0.6049   -2.6154 HC        1 <0>        0.04998
     16 H5          1.4778    1.3352   -2.3721 H1        1 <0>        0.04674
     17 H6          1.8895    2.3755   -1.0141 H1        1 <0>        0.04674
     18 H7          1.1901    1.4646    1.1256 H1        1 <0>        0.05027
     19 H8          2.3781    0.1832    1.3065 H1        1 <0>        0.05027
     20 H9         -0.1631   -1.0534   -1.2023 H2        1 <0>        0.06626
     21 H10        -0.6978   -1.0419    3.0739 HC        1 <0>        0.04784
     22 H11        -0.2607    0.6702    2.9162 HC        1 <0>        0.04784
     23 H12         0.9860   -0.5316    3.3025 HC        1 <0>        0.04784
     24 H13        -0.0286   -2.6764    1.3571 HC        1 <0>        0.04784
     25 H14         1.6620   -2.2123    1.6281 HC        1 <0>        0.04784
     26 H15         0.9853   -2.1804   -0.0117 HC        1 <0>        0.04784
     27 H16        -2.1934   -1.4592   -2.0180 HO        1 <0>        0.40351
@<TRIPOS>BOND
     1    1    2 1
     2    1    3 1
     3    2    5 1
     4    3    9 1
     5    4    6 1
     6    4    9 1
     7    5   10 1
     8    5   11 1
     9    6    7 1
    10    6    8 1
    11    6   10 1
    12    1   12 1
    13    1   13 1
    14    2   14 1
    15    2   15 1
    16    3   16 1
    17    3   17 1
    18    4   18 1
    19    4   19 1
    20    5   20 1
    21    7   21 1
    22    7   22 1
    23    7   23 1
    24    8   24 1
    25    8   25 1
    26    8   26 1
    27   11   27 1
@<TRIPOS>SUBSTRUCTURE
     1 <0>         1 GROUP 0 A     ****
